MODEL 1
REMARK VINA RESULT:      -7.2      0.000      0.000
REMARK  26 active torsions:
REMARK  status: ('A' for Active; 'I' for Inactive)
REMARK    1  A    between atoms: C2_2  and  C3_3 
REMARK    2  A    between atoms: C4_6  and  C5_7 
REMARK       I    between atoms: C5_7  and  N2_9 
REMARK    3  A    between atoms: N2_9  and  C6_10 
REMARK    4  A    between atoms: C6_10  and  C7_11 
REMARK    5  A    between atoms: C6_10  and  C8_13 
REMARK       I    between atoms: C7_11  and  N3_14 
REMARK    6  A    between atoms: N3_14  and  C9_15 
REMARK    7  A    between atoms: C9_15  and  C10_16 
REMARK    8  A    between atoms: C9_15  and  C11_18 
REMARK       I    between atoms: C10_16  and  N4_21 
REMARK    9  A    between atoms: C11_18  and  C12_19 
REMARK   10  A    between atoms: C11_18  and  C13_20 
REMARK   11  A    between atoms: N4_21  and  C14_22 
REMARK   12  A    between atoms: C14_22  and  C15_23 
REMARK   13  A    between atoms: C14_22  and  C16_25 
REMARK       I    between atoms: C15_23  and  N6_40 
REMARK   14  A    between atoms: C16_25  and  C17_26 
REMARK   15  A    between atoms: C17_26  and  C18_27 
REMARK   16  A    between atoms: C17_26  and  C19_28 
REMARK   17  A    between atoms: C20_29  and  C21_30 
REMARK   18  A    between atoms: C20_29  and  C24_33 
REMARK   19  A    between atoms: C20_29  and  N6_40 
REMARK   20  A    between atoms: C21_30  and  C22_31 
REMARK   21  A    between atoms: C22_31  and  C23_32 
REMARK   22  A    between atoms: C23_32  and  O8_43 
REMARK   23  A    between atoms: C24_33  and  C25_34 
REMARK   24  A    between atoms: C28_38  and  O6_39 
REMARK   25  A    between atoms: C29_42  and  O8_43 
REMARK   26  A    between atoms: C29_42  and  C35_49 
ROOT
ATOM      1  C14 non d ame     -12.243  14.194  70.415  0.00  0.00     0.089 C 
ATOM      2  H20 non d ame     -13.326  14.075  70.425  0.00  0.00     0.087 H 
ENDROOT
BRANCH   1   3
ATOM      3  N4  non d ame     -11.661  12.890  70.132  0.00  0.00    -0.346 N 
ATOM      4  C10 non d ame     -12.252  11.644  70.743  0.00  0.00     0.241 C 
ATOM      5  O4  non d ame     -13.195  11.716  71.461  0.00  0.00    -0.271 OA
ATOM      6  H19 non d ame     -10.857  12.850  69.521  0.00  0.00     0.163 HD
BRANCH   4   7
ATOM      7  C9  non d ame     -11.641  10.302  70.436  0.00  0.00     0.092 C 
ATOM      8  H11 non d ame     -12.104   9.894  69.538  0.00  0.00     0.088 H 
BRANCH   7   9
ATOM      9  N3  non d ame     -10.213  10.470  70.148  0.00  0.00    -0.346 N 
ATOM     10  C7  non d ame      -9.772  10.698  68.794  0.00  0.00     0.240 C 
ATOM     11  O3  non d ame     -10.553  10.749  67.923  0.00  0.00    -0.271 OA
ATOM     12  H10 non d ame      -9.528  10.427  70.888  0.00  0.00     0.163 HD
BRANCH  10  13
ATOM     13  C6  non d ame      -8.251  10.872  68.494  0.00  0.00     0.086 C 
ATOM     14  H6  non d ame      -8.023  10.829  67.429  0.00  0.00     0.086 H 
BRANCH  13  15
ATOM     15  N2  non d ame      -7.826  12.182  68.958  0.00  0.00    -0.343 N 
ATOM     16  C5  non d ame      -6.905  12.974  68.138  0.00  0.00     0.273 C 
ATOM     17  O2  non d ame      -6.511  12.546  67.109  0.00  0.00    -0.266 OA
ATOM     18  H5  non d ame      -8.166  12.540  69.839  0.00  0.00     0.163 HD
BRANCH  16  19
ATOM     19  C4  non d ame      -6.450  14.362  68.614  0.00  0.00     0.154 A 
ATOM     20  C1  non d ame      -5.486  15.216  67.991  0.00  0.00    -0.017 A 
ATOM     21  C2  non d ame      -5.429  16.363  68.814  0.00  0.00     0.077 A 
ATOM     22  H1  non d ame      -4.914  15.033  67.080  0.00  0.00     0.091 H 
ATOM     23  O1  non d ame      -6.268  16.179  69.792  0.00  0.00    -0.218 OA
ATOM     24  N1  non d ame      -6.874  15.018  69.697  0.00  0.00    -0.123 NA
BRANCH  21  25
ATOM     25  C3  non d ame      -4.551  17.587  68.595  0.00  0.00    -0.029 C 
ATOM     26  H2  non d ame      -3.604  17.282  68.149  0.00  0.00     0.036 H 
ATOM     27  H3  non d ame      -5.059  18.283  67.928  0.00  0.00     0.036 H 
ATOM     28  H4  non d ame      -4.361  18.075  69.552  0.00  0.00     0.036 H 
ENDBRANCH  21  25
ENDBRANCH  16  19
ENDBRANCH  13  15
BRANCH  13  29
ATOM     29  C8  non d ame      -7.469   9.796  69.203  0.00  0.00    -0.049 C 
ATOM     30  H7  non d ame      -6.427  10.102  69.292  0.00  0.00     0.030 H 
ATOM     31  H8  non d ame      -7.888   9.639  70.198  0.00  0.00     0.030 H 
ATOM     32  H9  non d ame      -7.528   8.869  68.634  0.00  0.00     0.030 H 
ENDBRANCH  13  29
ENDBRANCH  10  13
ENDBRANCH   7   9
BRANCH   7  33
ATOM     33  C11 non d ame     -11.813   9.360  71.664  0.00  0.00    -0.033 C 
ATOM     34  H12 non d ame     -12.070   9.982  72.521  0.00  0.00     0.042 H 
BRANCH  33  35
ATOM     35  C12 non d ame     -12.985   8.353  71.447  0.00  0.00    -0.071 C 
ATOM     36  H13 non d ame     -13.884   8.732  71.933  0.00  0.00     0.028 H 
ATOM     37  H14 non d ame     -13.171   8.236  70.379  0.00  0.00     0.028 H 
ATOM     38  H15 non d ame     -12.717   7.388  71.877  0.00  0.00     0.028 H 
ENDBRANCH  33  35
BRANCH  33  39
ATOM     39  C13 non d ame     -10.478   8.616  71.988  0.00  0.00    -0.071 C 
ATOM     40  H16 non d ame     -10.518   7.606  71.582  0.00  0.00     0.028 H 
ATOM     41  H17 non d ame      -9.643   9.155  71.542  0.00  0.00     0.028 H 
ATOM     42  H18 non d ame     -10.344   8.568  73.069  0.00  0.00     0.028 H 
ENDBRANCH  33  39
ENDBRANCH   7  33
ENDBRANCH   4   7
ENDBRANCH   1   3
BRANCH   1  43
ATOM     43  C15 non d ame     -11.772  15.193  69.320  0.00  0.00     0.240 C 
ATOM     44  O5  non d ame     -12.379  16.200  69.138  0.00  0.00    -0.271 OA
ATOM     45  N6  non d ame     -10.560  14.901  68.503  0.00  0.00    -0.355 N 
ATOM     46  H46 non d ame     -10.034  14.052  68.651  0.00  0.00     0.162 HD
BRANCH  45  47
ATOM     47  C20 non d ame     -10.125  15.862  67.467  0.00  0.00     0.013 C 
ATOM     48  H30 non d ame     -11.018  16.306  67.026  0.00  0.00     0.072 H 
BRANCH  47  49
ATOM     49  C21 non d ame      -9.335  15.131  66.405  0.00  0.00    -0.038 C 
ATOM     50  H31 non d ame      -9.464  15.709  65.490  0.00  0.00     0.036 H 
ATOM     51  H32 non d ame      -8.339  14.989  66.826  0.00  0.00     0.036 H 
BRANCH  49  52
ATOM     52  C22 non d ame      -9.889  13.719  66.112  0.00  0.00     0.018 C 
ATOM     53  H33 non d ame      -9.015  13.082  65.972  0.00  0.00     0.048 H 
ATOM     54  H34 non d ame     -10.595  13.507  66.914  0.00  0.00     0.048 H 
BRANCH  52  55
ATOM     55  C23 non d ame     -10.700  13.628  64.790  0.00  0.00     0.259 C 
ATOM     56  O7  non d ame     -11.600  14.375  64.583  0.00  0.00    -0.265 OA
BRANCH  55  57
ATOM     57  O8  non d ame     -10.364  12.631  63.833  0.00  0.00    -0.317 OA
BRANCH  57  58
ATOM     58  C29 non d ame     -10.117  11.340  64.398  0.00  0.00     0.052 C 
ATOM     59  H47 non d ame      -9.572  11.522  65.323  0.00  0.00     0.082 H 
ATOM     60  H48 non d ame     -11.086  10.841  64.426  0.00  0.00     0.082 H 
BRANCH  58  61
ATOM     61  C35 non d ame      -9.191  10.562  63.426  0.00  0.00    -0.034 A 
ATOM     62  C30 non d ame      -8.856   9.239  63.694  0.00  0.00    -0.075 A 
ATOM     63  C31 non d ame      -8.024   8.539  62.821  0.00  0.00    -0.082 A 
ATOM     64  H49 non d ame      -9.245   8.750  64.586  0.00  0.00     0.084 H 
ATOM     65  C32 non d ame      -7.524   9.169  61.678  0.00  0.00    -0.083 A 
ATOM     66  H50 non d ame      -7.764   7.502  63.033  0.00  0.00     0.083 H 
ATOM     67  C33 non d ame      -7.859  10.491  61.416  0.00  0.00    -0.082 A 
ATOM     68  H51 non d ame      -6.873   8.629  60.990  0.00  0.00     0.083 H 
ATOM     69  C34 non d ame      -8.692  11.192  62.285  0.00  0.00    -0.075 A 
ATOM     70  H52 non d ame      -7.465  10.980  60.525  0.00  0.00     0.083 H 
ATOM     71  H53 non d ame      -8.951  12.231  62.072  0.00  0.00     0.084 H 
ENDBRANCH  58  61
ENDBRANCH  57  58
ENDBRANCH  55  57
ENDBRANCH  52  55
ENDBRANCH  49  52
ENDBRANCH  47  49
BRANCH  47  72
ATOM     72  C24 non d ame      -9.251  16.943  68.099  0.00  0.00    -0.039 C 
ATOM     73  H35 non d ame      -9.160  16.665  69.149  0.00  0.00     0.036 H 
ATOM     74  H36 non d ame      -8.361  17.001  67.472  0.00  0.00     0.036 H 
BRANCH  72  75
ATOM     75  C25 non d ame      -9.958  18.380  68.050  0.00  0.00    -0.001 C 
ATOM     76  C26 non d ame     -10.528  18.674  66.536  0.00  0.00    -0.035 C 
ATOM     77  C27 non d ame     -10.080  19.885  66.128  0.00  0.00     0.085 C 
ATOM     78  H38 non d ame     -10.074  17.983  65.826  0.00  0.00     0.036 H 
ATOM     79  H39 non d ame     -11.611  18.797  66.561  0.00  0.00     0.036 H 
ATOM     80  N5  non d ame      -8.994  20.301  67.090  0.00  0.00    -0.049 N 
ATOM     81  H40 non d ame      -9.639  19.718  65.145  0.00  0.00     0.075 H 
ATOM     82  H41 non d ame     -10.928  20.561  66.238  0.00  0.00     0.075 H 
ATOM     83  C28 non d ame      -9.129  19.319  68.365  0.00  0.00     0.193 C 
ATOM     84  H42 non d ame      -8.115  20.110  66.630  0.00  0.00     0.280 HD
ATOM     85  H43 non d ame      -9.215  21.241  67.384  0.00  0.00     0.280 HD
ATOM     86  H44 non d ame      -9.575  19.676  69.294  0.00  0.00     0.129 H 
ATOM     87  H37 non d ame     -10.651  18.527  68.878  0.00  0.00     0.046 H 
BRANCH  83  88
ATOM     88  O6  non d ame      -7.846  18.807  68.730  0.00  0.00    -0.369 OA
ATOM     89  H45 non d ame      -7.755  17.910  68.401  0.00  0.00     0.212 HD
ENDBRANCH  83  88
ENDBRANCH  72  75
ENDBRANCH  47  72
ENDBRANCH  45  47
ENDBRANCH   1  43
BRANCH   1  90
ATOM     90  C16 non d ame     -11.764  14.667  71.778  0.00  0.00    -0.035 C 
ATOM     91  H21 non d ame     -11.108  13.876  72.144  0.00  0.00     0.037 H 
ATOM     92  H22 non d ame     -11.370  15.669  71.614  0.00  0.00     0.037 H 
BRANCH  90  93
ATOM     93  C17 non d ame     -12.909  14.809  72.830  0.00  0.00    -0.059 C 
ATOM     94  H23 non d ame     -13.100  13.821  73.247  0.00  0.00     0.038 H 
BRANCH  93  95
ATOM     95  C18 non d ame     -12.516  15.756  74.007  0.00  0.00    -0.073 C 
ATOM     96  H24 non d ame     -13.255  16.553  74.095  0.00  0.00     0.028 H 
ATOM     97  H25 non d ame     -12.485  15.187  74.936  0.00  0.00     0.028 H 
ATOM     98  H26 non d ame     -11.535  16.189  73.814  0.00  0.00     0.028 H 
ENDBRANCH  93  95
BRANCH  93  99
ATOM     99  C19 non d ame     -14.207  15.278  72.164  0.00  0.00    -0.073 C 
ATOM    100  H27 non d ame     -14.429  16.297  72.480  0.00  0.00     0.028 H 
ATOM    101  H28 non d ame     -14.089  15.250  71.081  0.00  0.00     0.028 H 
ATOM    102  H29 non d ame     -15.024  14.620  72.458  0.00  0.00     0.028 H 
ENDBRANCH  93  99
ENDBRANCH  90  93
ENDBRANCH   1  90
TORSDOF 26
ENDMDL
MODEL 2
REMARK VINA RESULT:      -7.2      2.940      5.339
REMARK  26 active torsions:
REMARK  status: ('A' for Active; 'I' for Inactive)
REMARK    1  A    between atoms: C2_2  and  C3_3 
REMARK    2  A    between atoms: C4_6  and  C5_7 
REMARK       I    between atoms: C5_7  and  N2_9 
REMARK    3  A    between atoms: N2_9  and  C6_10 
REMARK    4  A    between atoms: C6_10  and  C7_11 
REMARK    5  A    between atoms: C6_10  and  C8_13 
REMARK       I    between atoms: C7_11  and  N3_14 
REMARK    6  A    between atoms: N3_14  and  C9_15 
REMARK    7  A    between atoms: C9_15  and  C10_16 
REMARK    8  A    between atoms: C9_15  and  C11_18 
REMARK       I    between atoms: C10_16  and  N4_21 
REMARK    9  A    between atoms: C11_18  and  C12_19 
REMARK   10  A    between atoms: C11_18  and  C13_20 
REMARK   11  A    between atoms: N4_21  and  C14_22 
REMARK   12  A    between atoms: C14_22  and  C15_23 
REMARK   13  A    between atoms: C14_22  and  C16_25 
REMARK       I    between atoms: C15_23  and  N6_40 
REMARK   14  A    between atoms: C16_25  and  C17_26 
REMARK   15  A    between atoms: C17_26  and  C18_27 
REMARK   16  A    between atoms: C17_26  and  C19_28 
REMARK   17  A    between atoms: C20_29  and  C21_30 
REMARK   18  A    between atoms: C20_29  and  C24_33 
REMARK   19  A    between atoms: C20_29  and  N6_40 
REMARK   20  A    between atoms: C21_30  and  C22_31 
REMARK   21  A    between atoms: C22_31  and  C23_32 
REMARK   22  A    between atoms: C23_32  and  O8_43 
REMARK   23  A    between atoms: C24_33  and  C25_34 
REMARK   24  A    between atoms: C28_38  and  O6_39 
REMARK   25  A    between atoms: C29_42  and  O8_43 
REMARK   26  A    between atoms: C29_42  and  C35_49 
ROOT
ATOM      1  C14 non d ame     -11.994  14.103  69.789  0.00  0.00     0.089 C 
ATOM      2  H20 non d ame     -12.963  13.653  69.576  0.00  0.00     0.087 H 
ENDROOT
BRANCH   1   3
ATOM      3  N4  non d ame     -10.989  13.057  69.672  0.00  0.00    -0.346 N 
ATOM      4  C10 non d ame     -11.326  11.749  69.002  0.00  0.00     0.241 C 
ATOM      5  O4  non d ame     -12.414  11.560  68.568  0.00  0.00    -0.271 OA
ATOM      6  H19 non d ame     -10.069  13.237  70.050  0.00  0.00     0.163 HD
BRANCH   4   7
ATOM      7  C9  non d ame     -10.272  10.680  68.884  0.00  0.00     0.092 C 
ATOM      8  H11 non d ame      -9.547  10.800  69.689  0.00  0.00     0.088 H 
BRANCH   7   9
ATOM      9  N3  non d ame     -10.891   9.362  69.054  0.00  0.00    -0.346 N 
ATOM     10  C7  non d ame     -10.773   8.665  70.311  0.00  0.00     0.240 C 
ATOM     11  O3  non d ame     -10.181   9.150  71.197  0.00  0.00    -0.271 OA
ATOM     12  H10 non d ame     -11.403   8.930  68.298  0.00  0.00     0.163 HD
BRANCH  10  13
ATOM     13  C6  non d ame     -11.431   7.261  70.483  0.00  0.00     0.086 C 
ATOM     14  H6  non d ame     -12.360   7.158  69.922  0.00  0.00     0.086 H 
BRANCH  13  15
ATOM     15  N2  non d ame     -10.522   6.249  69.972  0.00  0.00    -0.343 N 
ATOM     16  C5  non d ame     -10.555   5.902  68.549  0.00  0.00     0.273 C 
ATOM     17  O2  non d ame     -11.317   6.442  67.826  0.00  0.00    -0.266 OA
ATOM     18  H5  non d ame      -9.875   5.791  70.598  0.00  0.00     0.163 HD
BRANCH  16  19
ATOM     19  C4  non d ame      -9.598   4.835  67.995  0.00  0.00     0.154 A 
ATOM     20  C1  non d ame      -9.014   3.742  68.710  0.00  0.00    -0.017 A 
ATOM     21  C2  non d ame      -8.221   3.065  67.757  0.00  0.00     0.077 A 
ATOM     22  H1  non d ame      -9.145   3.480  69.761  0.00  0.00     0.091 H 
ATOM     23  O1  non d ame      -8.344   3.702  66.628  0.00  0.00    -0.218 OA
ATOM     24  N1  non d ame      -9.142   4.739  66.743  0.00  0.00    -0.123 NA
BRANCH  21  25
ATOM     25  C3  non d ame      -7.381   1.820  68.004  0.00  0.00    -0.029 C 
ATOM     26  H2  non d ame      -7.233   1.687  69.076  0.00  0.00     0.036 H 
ATOM     27  H3  non d ame      -7.895   0.949  67.598  0.00  0.00     0.036 H 
ATOM     28  H4  non d ame      -6.413   1.931  67.514  0.00  0.00     0.036 H 
ENDBRANCH  21  25
ENDBRANCH  16  19
ENDBRANCH  13  15
BRANCH  13  29
ATOM     29  C8  non d ame     -11.714   7.011  71.943  0.00  0.00    -0.049 C 
ATOM     30  H7  non d ame     -10.906   7.426  72.546  0.00  0.00     0.030 H 
ATOM     31  H8  non d ame     -12.655   7.490  72.217  0.00  0.00     0.030 H 
ATOM     32  H9  non d ame     -11.786   5.939  72.120  0.00  0.00     0.030 H 
ENDBRANCH  13  29
ENDBRANCH  10  13
ENDBRANCH   7   9
BRANCH   7  33
ATOM     33  C11 non d ame      -9.605  10.760  67.480  0.00  0.00    -0.033 C 
ATOM     34  H12 non d ame     -10.389  10.987  66.757  0.00  0.00     0.042 H 
BRANCH  33  35
ATOM     35  C12 non d ame      -8.558  11.915  67.413  0.00  0.00    -0.071 C 
ATOM     36  H13 non d ame      -7.557  11.505  67.546  0.00  0.00     0.028 H 
ATOM     37  H14 non d ame      -8.622  12.409  66.444  0.00  0.00     0.028 H 
ATOM     38  H15 non d ame      -8.763  12.637  68.203  0.00  0.00     0.028 H 
ENDBRANCH  33  35
BRANCH  33  39
ATOM     39  C13 non d ame      -8.965   9.391  67.085  0.00  0.00    -0.071 C 
ATOM     40  H16 non d ame      -8.044   9.567  66.530  0.00  0.00     0.028 H 
ATOM     41  H17 non d ame      -8.743   8.820  67.987  0.00  0.00     0.028 H 
ATOM     42  H18 non d ame      -9.663   8.831  66.463  0.00  0.00     0.028 H 
ENDBRANCH  33  39
ENDBRANCH   7  33
ENDBRANCH   4   7
ENDBRANCH   1   3
BRANCH   1  43
ATOM     43  C15 non d ame     -11.643  15.242  68.791  0.00  0.00     0.240 C 
ATOM     44  O5  non d ame     -11.981  16.359  69.024  0.00  0.00    -0.271 OA
ATOM     45  N6  non d ame     -10.877  14.945  67.547  0.00  0.00    -0.355 N 
ATOM     46  H46 non d ame     -10.581  14.002  67.340  0.00  0.00     0.162 HD
BRANCH  45  47
ATOM     47  C20 non d ame     -10.549  16.040  66.608  0.00  0.00     0.013 C 
ATOM     48  H30 non d ame     -11.209  16.879  66.829  0.00  0.00     0.072 H 
BRANCH  47  49
ATOM     49  C21 non d ame     -10.774  15.566  65.190  0.00  0.00    -0.038 C 
ATOM     50  H31 non d ame     -11.852  15.437  65.089  0.00  0.00     0.036 H 
ATOM     51  H32 non d ame     -10.248  16.281  64.555  0.00  0.00     0.036 H 
BRANCH  49  52
ATOM     52  C22 non d ame     -10.139  14.187  64.911  0.00  0.00     0.018 C 
ATOM     53  H33 non d ame      -9.613  14.290  63.961  0.00  0.00     0.048 H 
ATOM     54  H34 non d ame      -9.587  13.928  65.814  0.00  0.00     0.048 H 
BRANCH  52  55
ATOM     55  C23 non d ame     -11.179  13.051  64.702  0.00  0.00     0.259 C 
ATOM     56  O7  non d ame     -12.129  12.966  65.411  0.00  0.00    -0.265 OA
BRANCH  55  57
ATOM     57  O8  non d ame     -10.976  12.103  63.662  0.00  0.00    -0.317 OA
BRANCH  57  58
ATOM     58  C29 non d ame     -10.579  10.807  64.122  0.00  0.00     0.052 C 
ATOM     59  H47 non d ame     -10.237  10.950  65.147  0.00  0.00     0.082 H 
ATOM     60  H48 non d ame     -11.424  10.150  63.917  0.00  0.00     0.082 H 
BRANCH  58  61
ATOM     61  C35 non d ame      -9.375  10.342  63.262  0.00  0.00    -0.034 A 
ATOM     62  C30 non d ame      -8.811   9.088  63.473  0.00  0.00    -0.075 A 
ATOM     63  C31 non d ame      -7.729   8.670  62.701  0.00  0.00    -0.082 A 
ATOM     64  H49 non d ame      -9.217   8.434  64.244  0.00  0.00     0.084 H 
ATOM     65  C32 non d ame      -7.209   9.512  61.714  0.00  0.00    -0.083 A 
ATOM     66  H50 non d ame      -7.291   7.686  62.868  0.00  0.00     0.083 H 
ATOM     67  C33 non d ame      -7.772  10.764  61.508  0.00  0.00    -0.082 A 
ATOM     68  H51 non d ame      -6.363   9.193  61.106  0.00  0.00     0.083 H 
ATOM     69  C34 non d ame      -8.856  11.185  62.277  0.00  0.00    -0.075 A 
ATOM     70  H52 non d ame      -7.363  11.420  60.740  0.00  0.00     0.083 H 
ATOM     71  H53 non d ame      -9.294  12.170  62.109  0.00  0.00     0.084 H 
ENDBRANCH  58  61
ENDBRANCH  57  58
ENDBRANCH  55  57
ENDBRANCH  52  55
ENDBRANCH  49  52
ENDBRANCH  47  49
BRANCH  47  72
ATOM     72  C24 non d ame      -9.089  16.451  66.784  0.00  0.00    -0.039 C 
ATOM     73  H35 non d ame      -8.695  15.798  67.563  0.00  0.00     0.036 H 
ATOM     74  H36 non d ame      -8.658  16.426  65.783  0.00  0.00     0.036 H 
BRANCH  72  75
ATOM     75  C25 non d ame      -8.958  17.956  67.317  0.00  0.00    -0.001 C 
ATOM     76  C26 non d ame     -10.418  18.709  67.238  0.00  0.00    -0.035 C 
ATOM     77  C27 non d ame     -10.267  19.886  66.587  0.00  0.00     0.085 C 
ATOM     78  H38 non d ame     -11.093  18.146  66.595  0.00  0.00     0.036 H 
ATOM     79  H39 non d ame     -10.739  19.008  68.236  0.00  0.00     0.036 H 
ATOM     80  N5  non d ame      -8.909  19.857  65.929  0.00  0.00    -0.049 N 
ATOM     81  H40 non d ame     -11.036  19.893  65.814  0.00  0.00     0.075 H 
ATOM     82  H41 non d ame     -10.268  20.651  67.363  0.00  0.00     0.075 H 
ATOM     83  C28 non d ame      -8.111  18.630  66.611  0.00  0.00     0.193 C 
ATOM     84  H42 non d ame      -9.067  19.636  64.956  0.00  0.00     0.280 HD
ATOM     85  H43 non d ame      -8.449  20.719  66.182  0.00  0.00     0.280 HD
ATOM     86  H44 non d ame      -7.337  18.818  67.355  0.00  0.00     0.129 H 
ATOM     87  H37 non d ame      -8.421  18.013  68.264  0.00  0.00     0.046 H 
BRANCH  83  88
ATOM     88  O6  non d ame      -7.488  17.828  65.606  0.00  0.00    -0.369 OA
ATOM     89  H45 non d ame      -8.163  17.416  65.063  0.00  0.00     0.212 HD
ENDBRANCH  83  88
ENDBRANCH  72  75
ENDBRANCH  47  72
ENDBRANCH  45  47
ENDBRANCH   1  43
BRANCH   1  90
ATOM     90  C16 non d ame     -11.982  14.647  71.210  0.00  0.00    -0.035 C 
ATOM     91  H21 non d ame     -11.410  13.922  71.791  0.00  0.00     0.037 H 
ATOM     92  H22 non d ame     -11.629  15.674  71.122  0.00  0.00     0.037 H 
BRANCH  90  93
ATOM     93  C17 non d ame     -13.397  14.719  71.865  0.00  0.00    -0.059 C 
ATOM     94  H23 non d ame     -14.095  15.072  71.106  0.00  0.00     0.038 H 
BRANCH  93  95
ATOM     95  C18 non d ame     -13.892  13.322  72.356  0.00  0.00    -0.073 C 
ATOM     96  H24 non d ame     -14.634  12.933  71.657  0.00  0.00     0.028 H 
ATOM     97  H25 non d ame     -13.048  12.634  72.408  0.00  0.00     0.028 H 
ATOM     98  H26 non d ame     -14.341  13.421  73.344  0.00  0.00     0.028 H 
ENDBRANCH  93  95
BRANCH  93  99
ATOM     99  C19 non d ame     -13.418  15.737  73.009  0.00  0.00    -0.073 C 
ATOM    100  H27 non d ame     -13.339  15.214  73.962  0.00  0.00     0.028 H 
ATOM    101  H28 non d ame     -12.578  16.423  72.900  0.00  0.00     0.028 H 
ATOM    102  H29 non d ame     -14.351  16.298  72.979  0.00  0.00     0.028 H 
ENDBRANCH  93  99
ENDBRANCH  90  93
ENDBRANCH   1  90
TORSDOF 26
ENDMDL
MODEL 3
REMARK VINA RESULT:      -7.0      2.148      5.876
REMARK  26 active torsions:
REMARK  status: ('A' for Active; 'I' for Inactive)
REMARK    1  A    between atoms: C2_2  and  C3_3 
REMARK    2  A    between atoms: C4_6  and  C5_7 
REMARK       I    between atoms: C5_7  and  N2_9 
REMARK    3  A    between atoms: N2_9  and  C6_10 
REMARK    4  A    between atoms: C6_10  and  C7_11 
REMARK    5  A    between atoms: C6_10  and  C8_13 
REMARK       I    between atoms: C7_11  and  N3_14 
REMARK    6  A    between atoms: N3_14  and  C9_15 
REMARK    7  A    between atoms: C9_15  and  C10_16 
REMARK    8  A    between atoms: C9_15  and  C11_18 
REMARK       I    between atoms: C10_16  and  N4_21 
REMARK    9  A    between atoms: C11_18  and  C12_19 
REMARK   10  A    between atoms: C11_18  and  C13_20 
REMARK   11  A    between atoms: N4_21  and  C14_22 
REMARK   12  A    between atoms: C14_22  and  C15_23 
REMARK   13  A    between atoms: C14_22  and  C16_25 
REMARK       I    between atoms: C15_23  and  N6_40 
REMARK   14  A    between atoms: C16_25  and  C17_26 
REMARK   15  A    between atoms: C17_26  and  C18_27 
REMARK   16  A    between atoms: C17_26  and  C19_28 
REMARK   17  A    between atoms: C20_29  and  C21_30 
REMARK   18  A    between atoms: C20_29  and  C24_33 
REMARK   19  A    between atoms: C20_29  and  N6_40 
REMARK   20  A    between atoms: C21_30  and  C22_31 
REMARK   21  A    between atoms: C22_31  and  C23_32 
REMARK   22  A    between atoms: C23_32  and  O8_43 
REMARK   23  A    between atoms: C24_33  and  C25_34 
REMARK   24  A    between atoms: C28_38  and  O6_39 
REMARK   25  A    between atoms: C29_42  and  O8_43 
REMARK   26  A    between atoms: C29_42  and  C35_49 
ROOT
ATOM      1  C14 non d ame      -9.961  10.951  67.905  0.00  0.00     0.089 C 
ATOM      2  H20 non d ame      -9.678  10.847  66.858  0.00  0.00     0.087 H 
ENDROOT
BRANCH   1   3
ATOM      3  N4  non d ame      -8.753  11.256  68.658  0.00  0.00    -0.346 N 
ATOM      4  C10 non d ame      -7.511  11.730  67.945  0.00  0.00     0.241 C 
ATOM      5  O4  non d ame      -7.507  11.854  66.765  0.00  0.00    -0.271 OA
ATOM      6  H19 non d ame      -8.777  11.141  69.662  0.00  0.00     0.163 HD
BRANCH   4   7
ATOM      7  C9  non d ame      -6.272  12.047  68.740  0.00  0.00     0.092 C 
ATOM      8  H11 non d ame      -5.396  11.925  68.103  0.00  0.00     0.088 H 
BRANCH   7   9
ATOM      9  N3  non d ame      -6.307  13.451  69.161  0.00  0.00    -0.346 N 
ATOM     10  C7  non d ame      -5.401  14.404  68.571  0.00  0.00     0.240 C 
ATOM     11  O3  non d ame      -4.634  14.058  67.757  0.00  0.00    -0.271 OA
ATOM     12  H10 non d ame      -6.962  13.763  69.864  0.00  0.00     0.163 HD
BRANCH  10  13
ATOM     13  C6  non d ame      -5.441  15.896  69.027  0.00  0.00     0.086 C 
ATOM     14  H6  non d ame      -4.652  16.497  68.574  0.00  0.00     0.086 H 
BRANCH  13  15
ATOM     15  N2  non d ame      -6.703  16.482  68.607  0.00  0.00    -0.343 N 
ATOM     16  C5  non d ame      -6.797  17.931  68.417  0.00  0.00     0.273 C 
ATOM     17  O2  non d ame      -5.852  18.616  68.607  0.00  0.00    -0.266 OA
ATOM     18  H5  non d ame      -7.506  15.890  68.450  0.00  0.00     0.163 HD
BRANCH  16  19
ATOM     19  C4  non d ame      -8.124  18.565  67.972  0.00  0.00     0.154 A 
ATOM     20  C1  non d ame      -8.558  18.808  66.630  0.00  0.00    -0.017 A 
ATOM     21  C2  non d ame      -9.834  19.401  66.762  0.00  0.00     0.077 A 
ATOM     22  H1  non d ame      -8.029  18.589  65.702  0.00  0.00     0.091 H 
ATOM     23  O1  non d ame     -10.093  19.482  68.035  0.00  0.00    -0.218 OA
ATOM     24  N1  non d ame      -9.110  19.002  68.761  0.00  0.00    -0.123 NA
BRANCH  21  25
ATOM     25  C3  non d ame     -10.738  19.857  65.626  0.00  0.00    -0.029 C 
ATOM     26  H2  non d ame     -10.888  20.936  65.690  0.00  0.00     0.036 H 
ATOM     27  H3  non d ame     -10.274  19.611  64.671  0.00  0.00     0.036 H 
ATOM     28  H4  non d ame     -11.702  19.351  65.701  0.00  0.00     0.036 H 
ENDBRANCH  21  25
ENDBRANCH  16  19
ENDBRANCH  13  15
BRANCH  13  29
ATOM     29  C8  non d ame      -5.311  15.970  70.527  0.00  0.00    -0.049 C 
ATOM     30  H7  non d ame      -6.146  15.445  70.991  0.00  0.00     0.030 H 
ATOM     31  H8  non d ame      -4.373  15.505  70.833  0.00  0.00     0.030 H 
ATOM     32  H9  non d ame      -5.319  17.013  70.841  0.00  0.00     0.030 H 
ENDBRANCH  13  29
ENDBRANCH  10  13
ENDBRANCH   7   9
BRANCH   7  33
ATOM     33  C11 non d ame      -6.213  11.131  69.998  0.00  0.00    -0.033 C 
ATOM     34  H12 non d ame      -7.214  11.102  70.430  0.00  0.00     0.042 H 
BRANCH  33  35
ATOM     35  C12 non d ame      -5.823   9.669  69.618  0.00  0.00    -0.071 C 
ATOM     36  H13 non d ame      -5.054   9.687  68.846  0.00  0.00     0.028 H 
ATOM     37  H14 non d ame      -5.441   9.154  70.500  0.00  0.00     0.028 H 
ATOM     38  H15 non d ame      -6.703   9.144  69.245  0.00  0.00     0.028 H 
ENDBRANCH  33  35
BRANCH  33  39
ATOM     39  C13 non d ame      -5.240  11.717  71.070  0.00  0.00    -0.071 C 
ATOM     40  H16 non d ame      -4.555  12.418  70.595  0.00  0.00     0.028 H 
ATOM     41  H17 non d ame      -5.814  12.234  71.839  0.00  0.00     0.028 H 
ATOM     42  H18 non d ame      -4.671  10.906  71.525  0.00  0.00     0.028 H 
ENDBRANCH  33  39
ENDBRANCH   7  33
ENDBRANCH   4   7
ENDBRANCH   1   3
BRANCH   1  43
ATOM     43  C15 non d ame     -10.986  12.099  68.127  0.00  0.00     0.240 C 
ATOM     44  O5  non d ame     -11.942  12.183  67.423  0.00  0.00    -0.271 OA
ATOM     45  N6  non d ame     -10.784  13.090  69.222  0.00  0.00    -0.355 N 
ATOM     46  H46 non d ame      -9.979  13.027  69.829  0.00  0.00     0.162 HD
BRANCH  45  47
ATOM     47  C20 non d ame     -11.769  14.175  69.420  0.00  0.00     0.013 C 
ATOM     48  H30 non d ame     -12.519  14.094  68.634  0.00  0.00     0.072 H 
BRANCH  47  49
ATOM     49  C21 non d ame     -11.066  15.511  69.329  0.00  0.00    -0.038 C 
ATOM     50  H31 non d ame     -11.698  16.214  69.872  0.00  0.00     0.036 H 
ATOM     51  H32 non d ame     -10.043  15.328  69.659  0.00  0.00     0.036 H 
BRANCH  49  52
ATOM     52  C22 non d ame     -10.969  16.039  67.881  0.00  0.00     0.018 C 
ATOM     53  H33 non d ame     -11.867  15.681  67.375  0.00  0.00     0.048 H 
ATOM     54  H34 non d ame     -10.784  17.110  67.969  0.00  0.00     0.048 H 
BRANCH  52  55
ATOM     55  C23 non d ame      -9.769  15.460  67.083  0.00  0.00     0.259 C 
ATOM     56  O7  non d ame      -8.855  14.956  67.651  0.00  0.00    -0.265 OA
BRANCH  55  57
ATOM     57  O8  non d ame      -9.766  15.549  65.664  0.00  0.00    -0.317 OA
BRANCH  57  58
ATOM     58  C29 non d ame     -11.048  15.342  65.064  0.00  0.00     0.052 C 
ATOM     59  H47 non d ame     -11.772  15.437  65.872  0.00  0.00     0.082 H 
ATOM     60  H48 non d ame     -11.089  16.022  64.213  0.00  0.00     0.082 H 
BRANCH  58  61
ATOM     61  C35 non d ame     -11.097  13.886  64.530  0.00  0.00    -0.034 A 
ATOM     62  C30 non d ame      -9.970  13.076  64.612  0.00  0.00    -0.075 A 
ATOM     63  C31 non d ame     -10.013  11.767  64.133  0.00  0.00    -0.082 A 
ATOM     64  H49 non d ame      -9.052  13.465  65.052  0.00  0.00     0.084 H 
ATOM     65  C32 non d ame     -11.191  11.271  63.567  0.00  0.00    -0.083 A 
ATOM     66  H50 non d ame      -9.128  11.135  64.200  0.00  0.00     0.083 H 
ATOM     67  C33 non d ame     -12.313  12.084  63.484  0.00  0.00    -0.082 A 
ATOM     68  H51 non d ame     -11.233  10.249  63.189  0.00  0.00     0.083 H 
ATOM     69  C34 non d ame     -12.274  13.391  63.964  0.00  0.00    -0.075 A 
ATOM     70  H52 non d ame     -13.229  11.694  63.039  0.00  0.00     0.083 H 
ATOM     71  H53 non d ame     -13.160  14.024  63.896  0.00  0.00     0.084 H 
ENDBRANCH  58  61
ENDBRANCH  57  58
ENDBRANCH  55  57
ENDBRANCH  52  55
ENDBRANCH  49  52
ENDBRANCH  47  49
BRANCH  47  72
ATOM     72  C24 non d ame     -12.422  14.035  70.793  0.00  0.00    -0.039 C 
ATOM     73  H35 non d ame     -13.437  13.691  70.599  0.00  0.00     0.036 H 
ATOM     74  H36 non d ame     -11.740  13.417  71.378  0.00  0.00     0.036 H 
BRANCH  72  75
ATOM     75  C25 non d ame     -12.537  15.447  71.541  0.00  0.00    -0.001 C 
ATOM     76  C26 non d ame     -11.741  15.387  72.979  0.00  0.00    -0.035 C 
ATOM     77  C27 non d ame     -12.571  15.824  73.956  0.00  0.00     0.085 C 
ATOM     78  H38 non d ame     -11.547  14.350  73.255  0.00  0.00     0.036 H 
ATOM     79  H39 non d ame     -10.929  16.114  72.988  0.00  0.00     0.036 H 
ATOM     80  N5  non d ame     -13.960  15.869  73.369  0.00  0.00    -0.049 N 
ATOM     81  H40 non d ame     -12.537  15.059  74.732  0.00  0.00     0.075 H 
ATOM     82  H41 non d ame     -12.247  16.841  74.178  0.00  0.00     0.075 H 
ATOM     83  C28 non d ame     -13.770  15.756  71.769  0.00  0.00     0.193 C 
ATOM     84  H42 non d ame     -14.436  15.040  73.695  0.00  0.00     0.280 HD
ATOM     85  H43 non d ame     -14.334  16.782  73.584  0.00  0.00     0.280 HD
ATOM     86  H44 non d ame     -13.875  16.637  71.135  0.00  0.00     0.129 H 
ATOM     87  H37 non d ame     -12.307  16.284  70.882  0.00  0.00     0.046 H 
BRANCH  83  88
ATOM     88  O6  non d ame     -14.676  14.791  71.233  0.00  0.00    -0.369 OA
ATOM     89  H45 non d ame     -14.430  13.916  71.540  0.00  0.00     0.212 HD
ENDBRANCH  83  88
ENDBRANCH  72  75
ENDBRANCH  47  72
ENDBRANCH  45  47
ENDBRANCH   1  43
BRANCH   1  90
ATOM     90  C16 non d ame     -10.544   9.640  68.412  0.00  0.00    -0.035 C 
ATOM     91  H21 non d ame      -9.837   9.281  69.161  0.00  0.00     0.037 H 
ATOM     92  H22 non d ame     -11.569   9.873  68.699  0.00  0.00     0.037 H 
BRANCH  90  93
ATOM     93  C17 non d ame     -10.631   8.529  67.319  0.00  0.00    -0.059 C 
ATOM     94  H23 non d ame     -11.633   8.565  66.891  0.00  0.00     0.038 H 
BRANCH  93  95
ATOM     95  C18 non d ame      -9.610   8.759  66.161  0.00  0.00    -0.073 C 
ATOM     96  H24 non d ame      -8.721   9.256  66.552  0.00  0.00     0.028 H 
ATOM     97  H25 non d ame      -9.327   7.799  65.729  0.00  0.00     0.028 H 
ATOM     98  H26 non d ame     -10.066   9.382  65.391  0.00  0.00     0.028 H 
ENDBRANCH  93  95
BRANCH  93  99
ATOM     99  C19 non d ame     -10.451   7.140  67.937  0.00  0.00    -0.073 C 
ATOM    100  H27 non d ame     -11.065   6.420  67.396  0.00  0.00     0.028 H 
ATOM    101  H28 non d ame      -9.403   6.846  67.872  0.00  0.00     0.028 H 
ATOM    102  H29 non d ame     -10.757   7.165  68.982  0.00  0.00     0.028 H 
ENDBRANCH  93  99
ENDBRANCH  90  93
ENDBRANCH   1  90
TORSDOF 26
ENDMDL
MODEL 4
REMARK VINA RESULT:      -6.8      2.521      6.685
REMARK  26 active torsions:
REMARK  status: ('A' for Active; 'I' for Inactive)
REMARK    1  A    between atoms: C2_2  and  C3_3 
REMARK    2  A    between atoms: C4_6  and  C5_7 
REMARK       I    between atoms: C5_7  and  N2_9 
REMARK    3  A    between atoms: N2_9  and  C6_10 
REMARK    4  A    between atoms: C6_10  and  C7_11 
REMARK    5  A    between atoms: C6_10  and  C8_13 
REMARK       I    between atoms: C7_11  and  N3_14 
REMARK    6  A    between atoms: N3_14  and  C9_15 
REMARK    7  A    between atoms: C9_15  and  C10_16 
REMARK    8  A    between atoms: C9_15  and  C11_18 
REMARK       I    between atoms: C10_16  and  N4_21 
REMARK    9  A    between atoms: C11_18  and  C12_19 
REMARK   10  A    between atoms: C11_18  and  C13_20 
REMARK   11  A    between atoms: N4_21  and  C14_22 
REMARK   12  A    between atoms: C14_22  and  C15_23 
REMARK   13  A    between atoms: C14_22  and  C16_25 
REMARK       I    between atoms: C15_23  and  N6_40 
REMARK   14  A    between atoms: C16_25  and  C17_26 
REMARK   15  A    between atoms: C17_26  and  C18_27 
REMARK   16  A    between atoms: C17_26  and  C19_28 
REMARK   17  A    between atoms: C20_29  and  C21_30 
REMARK   18  A    between atoms: C20_29  and  C24_33 
REMARK   19  A    between atoms: C20_29  and  N6_40 
REMARK   20  A    between atoms: C21_30  and  C22_31 
REMARK   21  A    between atoms: C22_31  and  C23_32 
REMARK   22  A    between atoms: C23_32  and  O8_43 
REMARK   23  A    between atoms: C24_33  and  C25_34 
REMARK   24  A    between atoms: C28_38  and  O6_39 
REMARK   25  A    between atoms: C29_42  and  O8_43 
REMARK   26  A    between atoms: C29_42  and  C35_49 
ROOT
ATOM      1  C14 non d ame     -11.770  14.702  70.133  0.00  0.00     0.089 C 
ATOM      2  H20 non d ame     -12.770  14.766  69.705  0.00  0.00     0.087 H 
ENDROOT
BRANCH   1   3
ATOM      3  N4  non d ame     -11.464  13.293  70.327  0.00  0.00    -0.346 N 
ATOM      4  C10 non d ame     -11.670  12.307  69.204  0.00  0.00     0.241 C 
ATOM      5  O4  non d ame     -12.085  12.672  68.154  0.00  0.00    -0.271 OA
ATOM      6  H19 non d ame     -11.114  13.002  71.229  0.00  0.00     0.163 HD
BRANCH   4   7
ATOM      7  C9  non d ame     -11.344  10.853  69.421  0.00  0.00     0.092 C 
ATOM      8  H11 non d ame     -11.909  10.249  68.711  0.00  0.00     0.088 H 
BRANCH   7   9
ATOM      9  N3  non d ame      -9.922  10.625  69.146  0.00  0.00    -0.346 N 
ATOM     10  C7  non d ame      -9.510  10.084  67.874  0.00  0.00     0.240 C 
ATOM     11  O3  non d ame     -10.311   9.824  67.060  0.00  0.00    -0.271 OA
ATOM     12  H10 non d ame      -9.220  10.843  69.839  0.00  0.00     0.163 HD
BRANCH  10  13
ATOM     13  C6  non d ame      -7.996   9.840  67.590  0.00  0.00     0.086 C 
ATOM     14  H6  non d ame      -7.512   9.243  68.363  0.00  0.00     0.086 H 
BRANCH  13  15
ATOM     15  N2  non d ame      -7.864   9.097  66.348  0.00  0.00    -0.343 N 
ATOM     16  C5  non d ame      -7.300   7.746  66.372  0.00  0.00     0.273 C 
ATOM     17  O2  non d ame      -6.953   7.267  67.396  0.00  0.00    -0.266 OA
ATOM     18  H5  non d ame      -8.160   9.514  65.477  0.00  0.00     0.163 HD
BRANCH  16  19
ATOM     19  C4  non d ame      -7.156   6.947  65.067  0.00  0.00     0.154 A 
ATOM     20  C1  non d ame      -8.209   6.381  64.280  0.00  0.00    -0.017 A 
ATOM     21  C2  non d ame      -7.555   5.757  63.194  0.00  0.00     0.077 A 
ATOM     22  H1  non d ame      -9.282   6.418  64.467  0.00  0.00     0.091 H 
ATOM     23  O1  non d ame      -6.277   5.949  63.348  0.00  0.00    -0.218 OA
ATOM     24  N1  non d ame      -6.020   6.640  64.435  0.00  0.00    -0.123 NA
BRANCH  21  25
ATOM     25  C3  non d ame      -8.223   5.001  62.054  0.00  0.00    -0.029 C 
ATOM     26  H2  non d ame      -8.299   5.651  61.181  0.00  0.00     0.036 H 
ATOM     27  H3  non d ame      -7.628   4.124  61.802  0.00  0.00     0.036 H 
ATOM     28  H4  non d ame      -9.222   4.687  62.360  0.00  0.00     0.036 H 
ENDBRANCH  21  25
ENDBRANCH  16  19
ENDBRANCH  13  15
BRANCH  13  29
ATOM     29  C8  non d ame      -7.283  11.163  67.477  0.00  0.00    -0.049 C 
ATOM     30  H7  non d ame      -7.295  11.496  66.439  0.00  0.00     0.030 H 
ATOM     31  H8  non d ame      -7.788  11.902  68.101  0.00  0.00     0.030 H 
ATOM     32  H9  non d ame      -6.252  11.051  67.810  0.00  0.00     0.030 H 
ENDBRANCH  13  29
ENDBRANCH  10  13
ENDBRANCH   7   9
BRANCH   7  33
ATOM     33  C11 non d ame     -11.653  10.466  70.896  0.00  0.00    -0.033 C 
ATOM     34  H12 non d ame     -11.365  11.309  71.525  0.00  0.00     0.042 H 
BRANCH  33  35
ATOM     35  C12 non d ame     -13.179  10.220  71.111  0.00  0.00    -0.071 C 
ATOM     36  H13 non d ame     -13.709  11.172  71.071  0.00  0.00     0.028 H 
ATOM     37  H14 non d ame     -13.555   9.562  70.329  0.00  0.00     0.028 H 
ATOM     38  H15 non d ame     -13.338   9.756  72.084  0.00  0.00     0.028 H 
ENDBRANCH  33  35
BRANCH  33  39
ATOM     39  C13 non d ame     -10.812   9.224  71.336  0.00  0.00    -0.071 C 
ATOM     40  H16 non d ame     -11.192   8.846  72.284  0.00  0.00     0.028 H 
ATOM     41  H17 non d ame     -10.888   8.446  70.577  0.00  0.00     0.028 H 
ATOM     42  H18 non d ame      -9.769   9.517  71.454  0.00  0.00     0.028 H 
ENDBRANCH  33  39
ENDBRANCH   7  33
ENDBRANCH   4   7
ENDBRANCH   1   3
BRANCH   1  43
ATOM     43  C15 non d ame     -10.690  15.319  69.198  0.00  0.00     0.240 C 
ATOM     44  O5  non d ame      -9.609  15.569  69.627  0.00  0.00    -0.271 OA
ATOM     45  N6  non d ame     -11.000  15.590  67.765  0.00  0.00    -0.355 N 
ATOM     46  H46 non d ame     -11.912  15.378  67.388  0.00  0.00     0.162 HD
BRANCH  45  47
ATOM     47  C20 non d ame      -9.962  16.175  66.889  0.00  0.00     0.013 C 
ATOM     48  H30 non d ame      -8.992  16.000  67.355  0.00  0.00     0.072 H 
BRANCH  47  49
ATOM     49  C21 non d ame     -10.206  17.661  66.748  0.00  0.00    -0.038 C 
ATOM     50  H31 non d ame     -10.835  17.774  65.865  0.00  0.00     0.036 H 
ATOM     51  H32 non d ame     -10.567  17.993  67.722  0.00  0.00     0.036 H 
BRANCH  49  52
ATOM     52  C22 non d ame      -8.912  18.456  66.469  0.00  0.00     0.018 C 
ATOM     53  H33 non d ame      -8.102  17.727  66.507  0.00  0.00     0.048 H 
ATOM     54  H34 non d ame      -9.101  19.014  65.551  0.00  0.00     0.048 H 
BRANCH  52  55
ATOM     55  C23 non d ame      -8.584  19.518  67.556  0.00  0.00     0.259 C 
ATOM     56  O7  non d ame      -8.690  20.677  67.318  0.00  0.00    -0.265 OA
BRANCH  55  57
ATOM     57  O8  non d ame      -8.140  19.089  68.837  0.00  0.00    -0.317 OA
BRANCH  57  58
ATOM     58  C29 non d ame      -6.836  19.561  69.191  0.00  0.00     0.052 C 
ATOM     59  H47 non d ame      -6.480  20.119  68.326  0.00  0.00     0.082 H 
ATOM     60  H48 non d ame      -6.955  20.062  70.151  0.00  0.00     0.082 H 
BRANCH  58  61
ATOM     61  C35 non d ame      -5.919  18.326  69.391  0.00  0.00    -0.034 A 
ATOM     62  C30 non d ame      -4.556  18.499  69.609  0.00  0.00    -0.075 A 
ATOM     63  C31 non d ame      -3.731  17.390  69.790  0.00  0.00    -0.082 A 
ATOM     64  H49 non d ame      -4.134  19.503  69.639  0.00  0.00     0.084 H 
ATOM     65  C32 non d ame      -4.274  16.103  69.749  0.00  0.00    -0.083 A 
ATOM     66  H50 non d ame      -2.664  17.529  69.962  0.00  0.00     0.083 H 
ATOM     67  C33 non d ame      -5.634  15.934  69.528  0.00  0.00    -0.082 A 
ATOM     68  H51 non d ame      -3.637  15.230  69.889  0.00  0.00     0.083 H 
ATOM     69  C34 non d ame      -6.462  17.041  69.350  0.00  0.00    -0.075 A 
ATOM     70  H52 non d ame      -6.054  14.928  69.495  0.00  0.00     0.083 H 
ATOM     71  H53 non d ame      -7.531  16.900  69.178  0.00  0.00     0.084 H 
ENDBRANCH  58  61
ENDBRANCH  57  58
ENDBRANCH  55  57
ENDBRANCH  52  55
ENDBRANCH  49  52
ENDBRANCH  47  49
BRANCH  47  72
ATOM     72  C24 non d ame     -10.017  15.516  65.513  0.00  0.00    -0.039 C 
ATOM     73  H35 non d ame     -10.131  16.335  64.803  0.00  0.00     0.036 H 
ATOM     74  H36 non d ame      -9.139  14.872  65.464  0.00  0.00     0.036 H 
BRANCH  72  75
ATOM     75  C25 non d ame     -11.303  14.574  65.358  0.00  0.00    -0.001 C 
ATOM     76  C26 non d ame     -10.836  13.043  64.980  0.00  0.00    -0.035 C 
ATOM     77  C27 non d ame     -11.526  12.632  63.890  0.00  0.00     0.085 C 
ATOM     78  H38 non d ame      -9.800  13.043  64.641  0.00  0.00     0.036 H 
ATOM     79  H39 non d ame     -11.154  12.351  65.760  0.00  0.00     0.036 H 
ATOM     80  N5  non d ame     -12.182  13.855  63.295  0.00  0.00    -0.049 N 
ATOM     81  H40 non d ame     -10.775  12.257  63.194  0.00  0.00     0.075 H 
ATOM     82  H41 non d ame     -12.299  11.965  64.270  0.00  0.00     0.075 H 
ATOM     83  C28 non d ame     -12.088  15.004  64.426  0.00  0.00     0.193 C 
ATOM     84  H42 non d ame     -11.611  14.131  62.509  0.00  0.00     0.280 HD
ATOM     85  H43 non d ame     -13.153  13.620  63.156  0.00  0.00     0.280 HD
ATOM     86  H44 non d ame     -12.965  15.274  65.014  0.00  0.00     0.129 H 
ATOM     87  H37 non d ame     -12.001  14.689  66.187  0.00  0.00     0.046 H 
BRANCH  83  88
ATOM     88  O6  non d ame     -11.623  16.225  63.850  0.00  0.00    -0.369 OA
ATOM     89  H45 non d ame     -10.683  16.321  64.019  0.00  0.00     0.212 HD
ENDBRANCH  83  88
ENDBRANCH  72  75
ENDBRANCH  47  72
ENDBRANCH  45  47
ENDBRANCH   1  43
BRANCH   1  90
ATOM     90  C16 non d ame     -11.741  15.407  71.480  0.00  0.00    -0.035 C 
ATOM     91  H21 non d ame     -10.749  15.212  71.887  0.00  0.00     0.037 H 
ATOM     92  H22 non d ame     -12.055  16.430  71.277  0.00  0.00     0.037 H 
BRANCH  90  93
ATOM     93  C17 non d ame     -12.761  14.828  72.512  0.00  0.00    -0.059 C 
ATOM     94  H23 non d ame     -12.638  13.745  72.525  0.00  0.00     0.038 H 
BRANCH  93  95
ATOM     95  C18 non d ame     -12.501  15.355  73.958  0.00  0.00    -0.073 C 
ATOM     96  H24 non d ame     -13.072  16.270  74.120  0.00  0.00     0.028 H 
ATOM     97  H25 non d ame     -12.813  14.601  74.681  0.00  0.00     0.028 H 
ATOM     98  H26 non d ame     -11.439  15.561  74.085  0.00  0.00     0.028 H 
ENDBRANCH  93  95
BRANCH  93  99
ATOM     99  C19 non d ame     -14.201  15.116  72.077  0.00  0.00    -0.073 C 
ATOM    100  H27 non d ame     -14.695  14.180  71.818  0.00  0.00     0.028 H 
ATOM    101  H28 non d ame     -14.738  15.597  72.894  0.00  0.00     0.028 H 
ATOM    102  H29 non d ame     -14.193  15.775  71.209  0.00  0.00     0.028 H 
ENDBRANCH  93  99
ENDBRANCH  90  93
ENDBRANCH   1  90
TORSDOF 26
ENDMDL
MODEL 5
REMARK VINA RESULT:      -6.8      2.944      7.754
REMARK  26 active torsions:
REMARK  status: ('A' for Active; 'I' for Inactive)
REMARK    1  A    between atoms: C2_2  and  C3_3 
REMARK    2  A    between atoms: C4_6  and  C5_7 
REMARK       I    between atoms: C5_7  and  N2_9 
REMARK    3  A    between atoms: N2_9  and  C6_10 
REMARK    4  A    between atoms: C6_10  and  C7_11 
REMARK    5  A    between atoms: C6_10  and  C8_13 
REMARK       I    between atoms: C7_11  and  N3_14 
REMARK    6  A    between atoms: N3_14  and  C9_15 
REMARK    7  A    between atoms: C9_15  and  C10_16 
REMARK    8  A    between atoms: C9_15  and  C11_18 
REMARK       I    between atoms: C10_16  and  N4_21 
REMARK    9  A    between atoms: C11_18  and  C12_19 
REMARK   10  A    between atoms: C11_18  and  C13_20 
REMARK   11  A    between atoms: N4_21  and  C14_22 
REMARK   12  A    between atoms: C14_22  and  C15_23 
REMARK   13  A    between atoms: C14_22  and  C16_25 
REMARK       I    between atoms: C15_23  and  N6_40 
REMARK   14  A    between atoms: C16_25  and  C17_26 
REMARK   15  A    between atoms: C17_26  and  C18_27 
REMARK   16  A    between atoms: C17_26  and  C19_28 
REMARK   17  A    between atoms: C20_29  and  C21_30 
REMARK   18  A    between atoms: C20_29  and  C24_33 
REMARK   19  A    between atoms: C20_29  and  N6_40 
REMARK   20  A    between atoms: C21_30  and  C22_31 
REMARK   21  A    between atoms: C22_31  and  C23_32 
REMARK   22  A    between atoms: C23_32  and  O8_43 
REMARK   23  A    between atoms: C24_33  and  C25_34 
REMARK   24  A    between atoms: C28_38  and  O6_39 
REMARK   25  A    between atoms: C29_42  and  O8_43 
REMARK   26  A    between atoms: C29_42  and  C35_49 
ROOT
ATOM      1  C14 non d ame     -10.033   9.155  66.867  0.00  0.00     0.089 C 
ATOM      2  H20 non d ame     -11.033   8.723  66.899  0.00  0.00     0.087 H 
ENDROOT
BRANCH   1   3
ATOM      3  N4  non d ame     -10.171  10.552  66.482  0.00  0.00    -0.346 N 
ATOM      4  C10 non d ame     -11.292  11.390  67.044  0.00  0.00     0.241 C 
ATOM      5  O4  non d ame     -12.072  10.917  67.804  0.00  0.00    -0.271 OA
ATOM      6  H19 non d ame      -9.498  10.934  65.832  0.00  0.00     0.163 HD
BRANCH   4   7
ATOM      7  C9  non d ame     -11.416  12.835  66.639  0.00  0.00     0.092 C 
ATOM      8  H11 non d ame     -12.453  13.151  66.753  0.00  0.00     0.088 H 
BRANCH   7   9
ATOM      9  N3  non d ame     -10.610  13.666  67.538  0.00  0.00    -0.346 N 
ATOM     10  C7  non d ame     -11.238  14.368  68.630  0.00  0.00     0.240 C 
ATOM     11  O3  non d ame     -12.393  14.276  68.799  0.00  0.00    -0.271 OA
ATOM     12  H10 non d ame      -9.613  13.756  67.403  0.00  0.00     0.163 HD
BRANCH  10  13
ATOM     13  C6  non d ame     -10.375  15.254  69.580  0.00  0.00     0.086 C 
ATOM     14  H6  non d ame      -9.486  14.739  69.945  0.00  0.00     0.086 H 
BRANCH  13  15
ATOM     15  N2  non d ame      -9.909  16.418  68.845  0.00  0.00    -0.343 N 
ATOM     16  C5  non d ame      -8.646  16.345  68.106  0.00  0.00     0.273 C 
ATOM     17  O2  non d ame      -8.013  15.348  68.111  0.00  0.00    -0.266 OA
ATOM     18  H5  non d ame     -10.455  17.267  68.848  0.00  0.00     0.163 HD
BRANCH  16  19
ATOM     19  C4  non d ame      -8.142  17.568  67.322  0.00  0.00     0.154 A 
ATOM     20  C1  non d ame      -7.493  18.727  67.853  0.00  0.00    -0.017 A 
ATOM     21  C2  non d ame      -7.236  19.546  66.731  0.00  0.00     0.077 A 
ATOM     22  H1  non d ame      -7.246  18.943  68.893  0.00  0.00     0.091 H 
ATOM     23  O1  non d ame      -7.686  18.920  65.682  0.00  0.00    -0.218 OA
ATOM     24  N1  non d ame      -8.221  17.763  66.003  0.00  0.00    -0.123 NA
BRANCH  21  25
ATOM     25  C3  non d ame      -6.554  20.907  66.745  0.00  0.00    -0.029 C 
ATOM     26  H2  non d ame      -5.498  20.784  66.988  0.00  0.00     0.036 H 
ATOM     27  H3  non d ame      -6.650  21.372  65.764  0.00  0.00     0.036 H 
ATOM     28  H4  non d ame      -7.027  21.543  67.495  0.00  0.00     0.036 H 
ENDBRANCH  21  25
ENDBRANCH  16  19
ENDBRANCH  13  15
BRANCH  13  29
ATOM     29  C8  non d ame     -11.205  15.688  70.761  0.00  0.00    -0.049 C 
ATOM     30  H7  non d ame     -10.734  15.348  71.683  0.00  0.00     0.030 H 
ATOM     31  H8  non d ame     -11.281  16.776  70.771  0.00  0.00     0.030 H 
ATOM     32  H9  non d ame     -12.202  15.256  70.683  0.00  0.00     0.030 H 
ENDBRANCH  13  29
ENDBRANCH  10  13
ENDBRANCH   7   9
BRANCH   7  33
ATOM     33  C11 non d ame     -10.908  13.010  65.178  0.00  0.00    -0.033 C 
ATOM     34  H12 non d ame     -10.086  12.310  65.030  0.00  0.00     0.042 H 
BRANCH  33  35
ATOM     35  C12 non d ame     -12.020  12.654  64.143  0.00  0.00    -0.071 C 
ATOM     36  H13 non d ame     -11.607  11.996  63.378  0.00  0.00     0.028 H 
ATOM     37  H14 non d ame     -12.842  12.150  64.651  0.00  0.00     0.028 H 
ATOM     38  H15 non d ame     -12.388  13.568  63.677  0.00  0.00     0.028 H 
ENDBRANCH  33  35
BRANCH  33  39
ATOM     39  C13 non d ame     -10.360  14.455  64.947  0.00  0.00    -0.071 C 
ATOM     40  H16 non d ame     -10.321  14.662  63.878  0.00  0.00     0.028 H 
ATOM     41  H17 non d ame     -11.017  15.176  65.434  0.00  0.00     0.028 H 
ATOM     42  H18 non d ame      -9.358  14.534  65.369  0.00  0.00     0.028 H 
ENDBRANCH  33  39
ENDBRANCH   7  33
ENDBRANCH   4   7
ENDBRANCH   1   3
BRANCH   1  43
ATOM     43  C15 non d ame      -9.322   9.091  68.249  0.00  0.00     0.240 C 
ATOM     44  O5  non d ame      -8.326   9.716  68.431  0.00  0.00    -0.271 OA
ATOM     45  N6  non d ame      -9.885   8.258  69.349  0.00  0.00    -0.355 N 
ATOM     46  H46 non d ame     -10.732   7.726  69.208  0.00  0.00     0.162 HD
BRANCH  45  47
ATOM     47  C20 non d ame      -9.197   8.208  70.657  0.00  0.00     0.013 C 
ATOM     48  H30 non d ame      -8.289   8.805  70.581  0.00  0.00     0.072 H 
BRANCH  47  49
ATOM     49  C21 non d ame      -8.846   6.774  70.984  0.00  0.00    -0.038 C 
ATOM     50  H31 non d ame      -7.770   6.691  70.830  0.00  0.00     0.036 H 
ATOM     51  H32 non d ame      -9.273   6.585  71.970  0.00  0.00     0.036 H 
BRANCH  49  52
ATOM     52  C22 non d ame      -9.505   5.762  70.023  0.00  0.00     0.018 C 
ATOM     53  H33 non d ame      -9.963   5.004  70.659  0.00  0.00     0.048 H 
ATOM     54  H34 non d ame     -10.124   6.354  69.348  0.00  0.00     0.048 H 
BRANCH  52  55
ATOM     55  C23 non d ame      -8.491   5.005  69.121  0.00  0.00     0.259 C 
ATOM     56  O7  non d ame      -7.874   4.084  69.549  0.00  0.00    -0.265 OA
BRANCH  55  57
ATOM     57  O8  non d ame      -8.295   5.433  67.779  0.00  0.00    -0.317 OA
BRANCH  57  58
ATOM     58  C29 non d ame      -7.163   4.841  67.136  0.00  0.00     0.052 C 
ATOM     59  H47 non d ame      -6.290   5.340  67.555  0.00  0.00     0.082 H 
ATOM     60  H48 non d ame      -7.285   3.765  67.257  0.00  0.00     0.082 H 
BRANCH  58  61
ATOM     61  C35 non d ame      -7.241   5.177  65.623  0.00  0.00    -0.034 A 
ATOM     62  C30 non d ame      -6.111   5.628  64.950  0.00  0.00    -0.075 A 
ATOM     63  C31 non d ame      -6.181   5.930  63.591  0.00  0.00    -0.082 A 
ATOM     64  H49 non d ame      -5.170   5.746  65.487  0.00  0.00     0.084 H 
ATOM     65  C32 non d ame      -7.389   5.780  62.905  0.00  0.00    -0.083 A 
ATOM     66  H50 non d ame      -5.293   6.282  63.067  0.00  0.00     0.083 H 
ATOM     67  C33 non d ame      -8.516   5.332  63.581  0.00  0.00    -0.082 A 
ATOM     68  H51 non d ame      -7.453   6.014  61.842  0.00  0.00     0.083 H 
ATOM     69  C34 non d ame      -8.449   5.028  64.939  0.00  0.00    -0.075 A 
ATOM     70  H52 non d ame      -9.458   5.219  63.043  0.00  0.00     0.083 H 
ATOM     71  H53 non d ame      -9.339   4.675  65.463  0.00  0.00     0.084 H 
ENDBRANCH  58  61
ENDBRANCH  57  58
ENDBRANCH  55  57
ENDBRANCH  52  55
ENDBRANCH  49  52
ENDBRANCH  47  49
BRANCH  47  72
ATOM     72  C24 non d ame     -10.112   8.770  71.743  0.00  0.00    -0.039 C 
ATOM     73  H35 non d ame      -9.964   8.126  72.610  0.00  0.00     0.036 H 
ATOM     74  H36 non d ame      -9.871   9.831  71.806  0.00  0.00     0.036 H 
BRANCH  72  75
ATOM     75  C25 non d ame     -11.657   8.660  71.331  0.00  0.00    -0.001 C 
ATOM     76  C26 non d ame     -12.303  10.163  71.170  0.00  0.00    -0.035 C 
ATOM     77  C27 non d ame     -13.438  10.232  71.905  0.00  0.00     0.085 C 
ATOM     78  H38 non d ame     -11.651  10.901  71.639  0.00  0.00     0.036 H 
ATOM     79  H39 non d ame     -12.650  10.314  70.148  0.00  0.00     0.036 H 
ATOM     80  N5  non d ame     -13.453   9.023  72.809  0.00  0.00    -0.049 N 
ATOM     81  H40 non d ame     -13.338  11.131  72.514  0.00  0.00     0.075 H 
ATOM     82  H41 non d ame     -14.254  10.148  71.187  0.00  0.00     0.075 H 
ATOM     83  C28 non d ame     -12.333   8.017  72.224  0.00  0.00     0.193 C 
ATOM     84  H42 non d ame     -13.154   9.343  73.719  0.00  0.00     0.280 HD
ATOM     85  H43 non d ame     -14.360   8.594  72.699  0.00  0.00     0.280 HD
ATOM     86  H44 non d ame     -12.626   7.134  71.655  0.00  0.00     0.129 H 
ATOM     87  H37 non d ame     -11.816   7.961  70.511  0.00  0.00     0.046 H 
BRANCH  83  88
ATOM     88  O6  non d ame     -11.506   7.533  73.283  0.00  0.00    -0.369 OA
ATOM     89  H45 non d ame     -11.958   7.651  74.121  0.00  0.00     0.212 HD
ENDBRANCH  83  88
ENDBRANCH  72  75
ENDBRANCH  47  72
ENDBRANCH  45  47
ENDBRANCH   1  43
BRANCH   1  90
ATOM     90  C16 non d ame      -9.193   8.433  65.826  0.00  0.00    -0.035 C 
ATOM     91  H21 non d ame      -8.463   7.856  66.394  0.00  0.00     0.037 H 
ATOM     92  H22 non d ame      -9.908   7.923  65.181  0.00  0.00     0.037 H 
BRANCH  90  93
ATOM     93  C17 non d ame      -8.375   9.394  64.906  0.00  0.00    -0.059 C 
ATOM     94  H23 non d ame      -8.673  10.414  65.145  0.00  0.00     0.038 H 
BRANCH  93  95
ATOM     95  C18 non d ame      -6.837   9.277  65.149  0.00  0.00    -0.073 C 
ATOM     96  H24 non d ame      -6.490   8.297  64.818  0.00  0.00     0.028 H 
ATOM     97  H25 non d ame      -6.319  10.054  64.586  0.00  0.00     0.028 H 
ATOM     98  H26 non d ame      -6.626   9.398  66.211  0.00  0.00     0.028 H 
ENDBRANCH  93  95
BRANCH  93  99
ATOM     99  C19 non d ame      -8.713   9.157  63.431  0.00  0.00    -0.073 C 
ATOM    100  H27 non d ame      -8.056   9.762  62.806  0.00  0.00     0.028 H 
ATOM    101  H28 non d ame      -8.574   8.103  63.191  0.00  0.00     0.028 H 
ATOM    102  H29 non d ame      -9.749   9.439  63.247  0.00  0.00     0.028 H 
ENDBRANCH  93  99
ENDBRANCH  90  93
ENDBRANCH   1  90
TORSDOF 26
ENDMDL
MODEL 6
REMARK VINA RESULT:      -6.8      3.207      9.215
REMARK  26 active torsions:
REMARK  status: ('A' for Active; 'I' for Inactive)
REMARK    1  A    between atoms: C2_2  and  C3_3 
REMARK    2  A    between atoms: C4_6  and  C5_7 
REMARK       I    between atoms: C5_7  and  N2_9 
REMARK    3  A    between atoms: N2_9  and  C6_10 
REMARK    4  A    between atoms: C6_10  and  C7_11 
REMARK    5  A    between atoms: C6_10  and  C8_13 
REMARK       I    between atoms: C7_11  and  N3_14 
REMARK    6  A    between atoms: N3_14  and  C9_15 
REMARK    7  A    between atoms: C9_15  and  C10_16 
REMARK    8  A    between atoms: C9_15  and  C11_18 
REMARK       I    between atoms: C10_16  and  N4_21 
REMARK    9  A    between atoms: C11_18  and  C12_19 
REMARK   10  A    between atoms: C11_18  and  C13_20 
REMARK   11  A    between atoms: N4_21  and  C14_22 
REMARK   12  A    between atoms: C14_22  and  C15_23 
REMARK   13  A    between atoms: C14_22  and  C16_25 
REMARK       I    between atoms: C15_23  and  N6_40 
REMARK   14  A    between atoms: C16_25  and  C17_26 
REMARK   15  A    between atoms: C17_26  and  C18_27 
REMARK   16  A    between atoms: C17_26  and  C19_28 
REMARK   17  A    between atoms: C20_29  and  C21_30 
REMARK   18  A    between atoms: C20_29  and  C24_33 
REMARK   19  A    between atoms: C20_29  and  N6_40 
REMARK   20  A    between atoms: C21_30  and  C22_31 
REMARK   21  A    between atoms: C22_31  and  C23_32 
REMARK   22  A    between atoms: C23_32  and  O8_43 
REMARK   23  A    between atoms: C24_33  and  C25_34 
REMARK   24  A    between atoms: C28_38  and  O6_39 
REMARK   25  A    between atoms: C29_42  and  O8_43 
REMARK   26  A    between atoms: C29_42  and  C35_49 
ROOT
ATOM      1  C14 non d ame      -9.468   6.093  68.347  0.00  0.00     0.089 C 
ATOM      2  H20 non d ame      -9.939   5.519  67.549  0.00  0.00     0.087 H 
ENDROOT
BRANCH   1   3
ATOM      3  N4  non d ame      -8.814   7.240  67.734  0.00  0.00    -0.346 N 
ATOM      4  C10 non d ame      -9.631   8.305  67.047  0.00  0.00     0.241 C 
ATOM      5  O4  non d ame     -10.814   8.215  66.997  0.00  0.00    -0.271 OA
ATOM      6  H19 non d ame      -7.807   7.296  67.785  0.00  0.00     0.163 HD
BRANCH   4   7
ATOM      7  C9  non d ame      -8.939   9.488  66.423  0.00  0.00     0.092 C 
ATOM      8  H11 non d ame      -8.565   9.206  65.439  0.00  0.00     0.088 H 
BRANCH   7   9
ATOM      9  N3  non d ame      -9.907  10.571  66.223  0.00  0.00    -0.346 N 
ATOM     10  C7  non d ame     -10.385  10.876  64.897  0.00  0.00     0.240 C 
ATOM     11  O3  non d ame     -10.000  10.261  63.979  0.00  0.00    -0.271 OA
ATOM     12  H10 non d ame     -10.246  11.112  67.005  0.00  0.00     0.163 HD
BRANCH  10  13
ATOM     13  C6  non d ame     -11.412  12.032  64.691  0.00  0.00     0.086 C 
ATOM     14  H6  non d ame     -12.262  11.968  65.370  0.00  0.00     0.086 H 
BRANCH  13  15
ATOM     15  N2  non d ame     -10.755  13.300  64.967  0.00  0.00    -0.343 N 
ATOM     16  C5  non d ame     -11.481  14.345  65.692  0.00  0.00     0.273 C 
ATOM     17  O2  non d ame     -12.593  14.157  66.048  0.00  0.00    -0.266 OA
ATOM     18  H5  non d ame      -9.807  13.453  64.658  0.00  0.00     0.163 HD
BRANCH  16  19
ATOM     19  C4  non d ame     -10.799  15.689  65.993  0.00  0.00     0.154 A 
ATOM     20  C1  non d ame     -10.372  16.175  67.269  0.00  0.00    -0.017 A 
ATOM     21  C2  non d ame      -9.812  17.446  67.005  0.00  0.00     0.077 A 
ATOM     22  H1  non d ame     -10.455  15.683  68.238  0.00  0.00     0.091 H 
ATOM     23  O1  non d ame      -9.910  17.654  65.724  0.00  0.00    -0.218 OA
ATOM     24  N1  non d ame     -10.483  16.643  65.112  0.00  0.00    -0.123 NA
BRANCH  21  25
ATOM     25  C3  non d ame      -9.205  18.393  68.030  0.00  0.00    -0.029 C 
ATOM     26  H2  non d ame      -8.124  18.441  67.887  0.00  0.00     0.036 H 
ATOM     27  H3  non d ame      -9.632  19.388  67.903  0.00  0.00     0.036 H 
ATOM     28  H4  non d ame      -9.422  18.031  69.036  0.00  0.00     0.036 H 
ENDBRANCH  21  25
ENDBRANCH  16  19
ENDBRANCH  13  15
BRANCH  13  29
ATOM     29  C8  non d ame     -11.919  12.012  63.272  0.00  0.00    -0.049 C 
ATOM     30  H7  non d ame     -13.009  12.026  63.274  0.00  0.00     0.030 H 
ATOM     31  H8  non d ame     -11.545  12.889  62.741  0.00  0.00     0.030 H 
ATOM     32  H9  non d ame     -11.569  11.109  62.774  0.00  0.00     0.030 H 
ENDBRANCH  13  29
ENDBRANCH  10  13
ENDBRANCH   7   9
BRANCH   7  33
ATOM     33  C11 non d ame      -7.801   9.979  67.364  0.00  0.00    -0.033 C 
ATOM     34  H12 non d ame      -7.268   9.098  67.722  0.00  0.00     0.042 H 
BRANCH  33  35
ATOM     35  C12 non d ame      -6.774  10.869  66.597  0.00  0.00    -0.071 C 
ATOM     36  H13 non d ame      -7.208  11.853  66.418  0.00  0.00     0.028 H 
ATOM     37  H14 non d ame      -5.868  10.976  67.194  0.00  0.00     0.028 H 
ATOM     38  H15 non d ame      -6.527  10.400  65.645  0.00  0.00     0.028 H 
ENDBRANCH  33  35
BRANCH  33  39
ATOM     39  C13 non d ame      -8.385  10.729  68.604  0.00  0.00    -0.071 C 
ATOM     40  H16 non d ame      -7.571  11.034  69.261  0.00  0.00     0.028 H 
ATOM     41  H17 non d ame      -8.934  11.610  68.271  0.00  0.00     0.028 H 
ATOM     42  H18 non d ame      -9.059  10.064  69.145  0.00  0.00     0.028 H 
ENDBRANCH  33  39
ENDBRANCH   7  33
ENDBRANCH   4   7
ENDBRANCH   1   3
BRANCH   1  43
ATOM     43  C15 non d ame     -10.501   6.610  69.388  0.00  0.00     0.240 C 
ATOM     44  O5  non d ame     -11.588   6.130  69.432  0.00  0.00    -0.271 OA
ATOM     45  N6  non d ame     -10.134   7.698  70.339  0.00  0.00    -0.355 N 
ATOM     46  H46 non d ame      -9.212   8.111  70.314  0.00  0.00     0.162 HD
BRANCH  45  47
ATOM     47  C20 non d ame     -11.127   8.178  71.324  0.00  0.00     0.013 C 
ATOM     48  H30 non d ame     -12.071   7.672  71.121  0.00  0.00     0.072 H 
BRANCH  47  49
ATOM     49  C21 non d ame     -11.299   9.672  71.174  0.00  0.00    -0.038 C 
ATOM     50  H31 non d ame     -11.665  10.025  72.139  0.00  0.00     0.036 H 
ATOM     51  H32 non d ame     -10.349  10.040  70.783  0.00  0.00     0.036 H 
BRANCH  49  52
ATOM     52  C22 non d ame     -12.374  10.051  70.133  0.00  0.00     0.018 C 
ATOM     53  H33 non d ame     -12.484   9.177  69.490  0.00  0.00     0.048 H 
ATOM     54  H34 non d ame     -13.226  10.416  70.707  0.00  0.00     0.048 H 
BRANCH  52  55
ATOM     55  C23 non d ame     -11.955  11.219  69.198  0.00  0.00     0.259 C 
ATOM     56  O7  non d ame     -12.134  11.147  68.026  0.00  0.00    -0.265 OA
BRANCH  55  57
ATOM     57  O8  non d ame     -11.340  12.374  69.756  0.00  0.00    -0.317 OA
BRANCH  57  58
ATOM     58  C29 non d ame     -11.986  13.603  69.412  0.00  0.00     0.052 C 
ATOM     59  H47 non d ame     -11.244  14.185  68.867  0.00  0.00     0.082 H 
ATOM     60  H48 non d ame     -12.920  13.319  68.925  0.00  0.00     0.082 H 
BRANCH  58  61
ATOM     61  C35 non d ame     -12.327  14.350  70.728  0.00  0.00    -0.034 A 
ATOM     62  C30 non d ame     -13.381  13.914  71.524  0.00  0.00    -0.075 A 
ATOM     63  C31 non d ame     -13.687  14.585  72.707  0.00  0.00    -0.082 A 
ATOM     64  H49 non d ame     -13.967  13.047  71.221  0.00  0.00     0.084 H 
ATOM     65  C32 non d ame     -12.936  15.699  73.092  0.00  0.00    -0.083 A 
ATOM     66  H50 non d ame     -14.513  14.240  73.329  0.00  0.00     0.083 H 
ATOM     67  C33 non d ame     -11.886  16.133  72.293  0.00  0.00    -0.082 A 
ATOM     68  H51 non d ame     -13.168  16.230  74.015  0.00  0.00     0.083 H 
ATOM     69  C34 non d ame     -11.575  15.463  71.111  0.00  0.00    -0.075 A 
ATOM     70  H52 non d ame     -11.303  17.003  72.595  0.00  0.00     0.083 H 
ATOM     71  H53 non d ame     -10.748  15.809  70.490  0.00  0.00     0.084 H 
ENDBRANCH  58  61
ENDBRANCH  57  58
ENDBRANCH  55  57
ENDBRANCH  52  55
ENDBRANCH  49  52
ENDBRANCH  47  49
BRANCH  47  72
ATOM     72  C24 non d ame     -10.647   7.858  72.738  0.00  0.00    -0.039 C 
ATOM     73  H35 non d ame      -9.849   8.572  72.942  0.00  0.00     0.036 H 
ATOM     74  H36 non d ame     -11.546   7.855  73.356  0.00  0.00     0.036 H 
BRANCH  72  75
ATOM     75  C25 non d ame     -10.006   6.393  72.829  0.00  0.00    -0.001 C 
ATOM     76  C26 non d ame     -11.198   5.262  72.894  0.00  0.00    -0.035 C 
ATOM     77  C27 non d ame     -10.966   4.443  73.947  0.00  0.00     0.085 C 
ATOM     78  H38 non d ame     -12.148   5.735  73.143  0.00  0.00     0.036 H 
ATOM     79  H39 non d ame     -11.130   4.596  72.033  0.00  0.00     0.036 H 
ATOM     80  N5  non d ame      -9.910   5.106  74.798  0.00  0.00    -0.049 N 
ATOM     81  H40 non d ame     -11.903   4.412  74.504  0.00  0.00     0.075 H 
ATOM     82  H41 non d ame     -10.555   3.529  73.520  0.00  0.00     0.075 H 
ATOM     83  C28 non d ame      -9.268   6.270  73.882  0.00  0.00     0.193 C 
ATOM     84  H42 non d ame     -10.395   5.537  75.572  0.00  0.00     0.280 HD
ATOM     85  H43 non d ame      -9.202   4.407  74.972  0.00  0.00     0.280 HD
ATOM     86  H44 non d ame      -8.288   6.137  73.423  0.00  0.00     0.129 H 
ATOM     87  H37 non d ame      -9.218   6.241  72.092  0.00  0.00     0.046 H 
BRANCH  83  88
ATOM     88  O6  non d ame      -9.180   7.488  74.623  0.00  0.00    -0.369 OA
ATOM     89  H45 non d ame      -8.938   7.293  75.531  0.00  0.00     0.212 HD
ENDBRANCH  83  88
ENDBRANCH  72  75
ENDBRANCH  47  72
ENDBRANCH  45  47
ENDBRANCH   1  43
BRANCH   1  90
ATOM     90  C16 non d ame      -8.421   5.240  69.046  0.00  0.00    -0.035 C 
ATOM     91  H21 non d ame      -7.484   5.456  68.533  0.00  0.00     0.037 H 
ATOM     92  H22 non d ame      -8.526   5.466  70.106  0.00  0.00     0.037 H 
BRANCH  90  93
ATOM     93  C17 non d ame      -8.662   3.704  68.895  0.00  0.00    -0.059 C 
ATOM     94  H23 non d ame      -7.688   3.224  68.802  0.00  0.00     0.038 H 
BRANCH  93  95
ATOM     95  C18 non d ame      -9.378   3.094  70.141  0.00  0.00    -0.073 C 
ATOM     96  H24 non d ame      -9.003   2.085  70.317  0.00  0.00     0.028 H 
ATOM     97  H25 non d ame      -9.176   3.712  71.015  0.00  0.00     0.028 H 
ATOM     98  H26 non d ame     -10.452   3.057  69.962  0.00  0.00     0.028 H 
ENDBRANCH  93  95
BRANCH  93  99
ATOM     99  C19 non d ame      -9.443   3.398  67.613  0.00  0.00    -0.073 C 
ATOM    100  H27 non d ame      -9.855   2.391  67.672  0.00  0.00     0.028 H 
ATOM    101  H28 non d ame     -10.253   4.117  67.501  0.00  0.00     0.028 H 
ATOM    102  H29 non d ame      -8.774   3.466  66.756  0.00  0.00     0.028 H 
ENDBRANCH  93  99
ENDBRANCH  90  93
ENDBRANCH   1  90
TORSDOF 26
ENDMDL
MODEL 7
REMARK VINA RESULT:      -6.7      2.963      7.764
REMARK  26 active torsions:
REMARK  status: ('A' for Active; 'I' for Inactive)
REMARK    1  A    between atoms: C2_2  and  C3_3 
REMARK    2  A    between atoms: C4_6  and  C5_7 
REMARK       I    between atoms: C5_7  and  N2_9 
REMARK    3  A    between atoms: N2_9  and  C6_10 
REMARK    4  A    between atoms: C6_10  and  C7_11 
REMARK    5  A    between atoms: C6_10  and  C8_13 
REMARK       I    between atoms: C7_11  and  N3_14 
REMARK    6  A    between atoms: N3_14  and  C9_15 
REMARK    7  A    between atoms: C9_15  and  C10_16 
REMARK    8  A    between atoms: C9_15  and  C11_18 
REMARK       I    between atoms: C10_16  and  N4_21 
REMARK    9  A    between atoms: C11_18  and  C12_19 
REMARK   10  A    between atoms: C11_18  and  C13_20 
REMARK   11  A    between atoms: N4_21  and  C14_22 
REMARK   12  A    between atoms: C14_22  and  C15_23 
REMARK   13  A    between atoms: C14_22  and  C16_25 
REMARK       I    between atoms: C15_23  and  N6_40 
REMARK   14  A    between atoms: C16_25  and  C17_26 
REMARK   15  A    between atoms: C17_26  and  C18_27 
REMARK   16  A    between atoms: C17_26  and  C19_28 
REMARK   17  A    between atoms: C20_29  and  C21_30 
REMARK   18  A    between atoms: C20_29  and  C24_33 
REMARK   19  A    between atoms: C20_29  and  N6_40 
REMARK   20  A    between atoms: C21_30  and  C22_31 
REMARK   21  A    between atoms: C22_31  and  C23_32 
REMARK   22  A    between atoms: C23_32  and  O8_43 
REMARK   23  A    between atoms: C24_33  and  C25_34 
REMARK   24  A    between atoms: C28_38  and  O6_39 
REMARK   25  A    between atoms: C29_42  and  O8_43 
REMARK   26  A    between atoms: C29_42  and  C35_49 
ROOT
ATOM      1  C14 non d ame      -6.997  13.170  68.185  0.00  0.00     0.089 C 
ATOM      2  H20 non d ame      -6.245  12.952  67.426  0.00  0.00     0.087 H 
ENDROOT
BRANCH   1   3
ATOM      3  N4  non d ame      -7.245  14.604  68.157  0.00  0.00    -0.346 N 
ATOM      4  C10 non d ame      -6.183  15.551  67.656  0.00  0.00     0.241 C 
ATOM      5  O4  non d ame      -5.136  15.135  67.281  0.00  0.00    -0.271 OA
ATOM      6  H19 non d ame      -8.141  14.938  68.483  0.00  0.00     0.163 HD
BRANCH   4   7
ATOM      7  C9  non d ame      -6.458  17.031  67.629  0.00  0.00     0.092 C 
ATOM      8  H11 non d ame      -6.193  17.428  66.649  0.00  0.00     0.088 H 
BRANCH   7   9
ATOM      9  N3  non d ame      -7.893  17.265  67.815  0.00  0.00    -0.346 N 
ATOM     10  C7  non d ame      -8.707  17.685  66.701  0.00  0.00     0.240 C 
ATOM     11  O3  non d ame      -8.222  17.840  65.647  0.00  0.00    -0.271 OA
ATOM     12  H10 non d ame      -8.325  17.137  68.719  0.00  0.00     0.163 HD
BRANCH  10  13
ATOM     13  C6  non d ame     -10.233  17.936  66.907  0.00  0.00     0.086 C 
ATOM     14  H6  non d ame     -10.848  17.427  66.165  0.00  0.00     0.086 H 
BRANCH  13  15
ATOM     15  N2  non d ame     -10.626  17.409  68.204  0.00  0.00    -0.343 N 
ATOM     16  C5  non d ame     -11.204  16.066  68.291  0.00  0.00     0.273 C 
ATOM     17  O2  non d ame     -11.351  15.419  67.313  0.00  0.00    -0.266 OA
ATOM     18  H5  non d ame     -10.499  17.969  69.034  0.00  0.00     0.163 HD
BRANCH  16  19
ATOM     19  C4  non d ame     -11.622  15.496  69.656  0.00  0.00     0.154 A 
ATOM     20  C1  non d ame     -12.430  14.340  69.899  0.00  0.00    -0.017 A 
ATOM     21  C2  non d ame     -12.518  14.246  71.305  0.00  0.00     0.077 A 
ATOM     22  H1  non d ame     -12.884  13.671  69.166  0.00  0.00     0.091 H 
ATOM     23  O1  non d ame     -11.834  15.236  71.803  0.00  0.00    -0.218 OA
ATOM     24  N1  non d ame     -11.303  15.980  70.859  0.00  0.00    -0.123 NA
BRANCH  21  25
ATOM     25  C3  non d ame     -13.270  13.182  72.093  0.00  0.00    -0.029 C 
ATOM     26  H2  non d ame     -13.233  12.235  71.552  0.00  0.00     0.036 H 
ATOM     27  H3  non d ame     -12.806  13.059  73.071  0.00  0.00     0.036 H 
ATOM     28  H4  non d ame     -14.308  13.488  72.220  0.00  0.00     0.036 H 
ENDBRANCH  21  25
ENDBRANCH  16  19
ENDBRANCH  13  15
BRANCH  13  29
ATOM     29  C8  non d ame     -10.515  19.415  66.844  0.00  0.00    -0.049 C 
ATOM     30  H7  non d ame     -11.555  19.599  67.114  0.00  0.00     0.030 H 
ATOM     31  H8  non d ame      -9.861  19.940  67.542  0.00  0.00     0.030 H 
ATOM     32  H9  non d ame     -10.333  19.777  65.833  0.00  0.00     0.030 H 
ENDBRANCH  13  29
ENDBRANCH  10  13
ENDBRANCH   7   9
BRANCH   7  33
ATOM     33  C11 non d ame      -5.668  17.726  68.776  0.00  0.00    -0.033 C 
ATOM     34  H12 non d ame      -5.450  16.970  69.531  0.00  0.00     0.042 H 
BRANCH  33  35
ATOM     35  C12 non d ame      -4.304  18.288  68.268  0.00  0.00    -0.071 C 
ATOM     36  H13 non d ame      -4.481  19.167  67.648  0.00  0.00     0.028 H 
ATOM     37  H14 non d ame      -3.684  18.564  69.120  0.00  0.00     0.028 H 
ATOM     38  H15 non d ame      -3.794  17.524  67.681  0.00  0.00     0.028 H 
ENDBRANCH  33  35
BRANCH  33  39
ATOM     39  C13 non d ame      -6.527  18.846  69.448  0.00  0.00    -0.071 C 
ATOM     40  H16 non d ame      -7.580  18.681  69.222  0.00  0.00     0.028 H 
ATOM     41  H17 non d ame      -6.377  18.821  70.527  0.00  0.00     0.028 H 
ATOM     42  H18 non d ame      -6.221  19.818  69.061  0.00  0.00     0.028 H 
ENDBRANCH  33  39
ENDBRANCH   7  33
ENDBRANCH   4   7
ENDBRANCH   1   3
BRANCH   1  43
ATOM     43  C15 non d ame      -8.338  12.431  67.913  0.00  0.00     0.240 C 
ATOM     44  O5  non d ame      -9.370  12.959  68.182  0.00  0.00    -0.271 OA
ATOM     45  N6  non d ame      -8.339  11.068  67.309  0.00  0.00    -0.355 N 
ATOM     46  H46 non d ame      -7.470  10.611  67.072  0.00  0.00     0.162 HD
BRANCH  45  47
ATOM     47  C20 non d ame      -9.623  10.379  67.056  0.00  0.00     0.013 C 
ATOM     48  H30 non d ame     -10.426  11.031  67.399  0.00  0.00     0.072 H 
BRANCH  47  49
ATOM     49  C21 non d ame      -9.652   9.077  67.824  0.00  0.00    -0.038 C 
ATOM     50  H31 non d ame      -8.704   9.030  68.361  0.00  0.00     0.036 H 
ATOM     51  H32 non d ame     -10.593   9.082  68.376  0.00  0.00     0.036 H 
BRANCH  49  52
ATOM     52  C22 non d ame      -9.694   7.839  66.903  0.00  0.00     0.018 C 
ATOM     53  H33 non d ame     -10.236   8.152  66.010  0.00  0.00     0.048 H 
ATOM     54  H34 non d ame      -8.662   7.496  66.821  0.00  0.00     0.048 H 
BRANCH  52  55
ATOM     55  C23 non d ame     -10.498   6.647  67.493  0.00  0.00     0.259 C 
ATOM     56  O7  non d ame     -10.728   6.594  68.658  0.00  0.00    -0.265 OA
BRANCH  55  57
ATOM     57  O8  non d ame     -10.944   5.610  66.628  0.00  0.00    -0.317 OA
BRANCH  57  58
ATOM     58  C29 non d ame      -9.974   4.584  66.398  0.00  0.00     0.052 C 
ATOM     59  H47 non d ame      -9.047   4.949  66.839  0.00  0.00     0.082 H 
ATOM     60  H48 non d ame     -10.426   3.663  66.765  0.00  0.00     0.082 H 
BRANCH  58  61
ATOM     61  C35 non d ame      -9.770   4.454  64.865  0.00  0.00    -0.034 A 
ATOM     62  C30 non d ame     -10.633   3.664  64.112  0.00  0.00    -0.075 A 
ATOM     63  C31 non d ame     -10.450   3.547  62.735  0.00  0.00    -0.082 A 
ATOM     64  H49 non d ame     -11.451   3.137  64.600  0.00  0.00     0.084 H 
ATOM     65  C32 non d ame      -9.397   4.223  62.111  0.00  0.00    -0.083 A 
ATOM     66  H50 non d ame     -11.128   2.929  62.148  0.00  0.00     0.083 H 
ATOM     67  C33 non d ame      -8.537   5.008  62.867  0.00  0.00    -0.082 A 
ATOM     68  H51 non d ame      -9.247   4.137  61.035  0.00  0.00     0.083 H 
ATOM     69  C34 non d ame      -8.718   5.129  64.243  0.00  0.00    -0.075 A 
ATOM     70  H52 non d ame      -7.715   5.531  62.377  0.00  0.00     0.083 H 
ATOM     71  H53 non d ame      -8.038   5.749  64.830  0.00  0.00     0.084 H 
ENDBRANCH  58  61
ENDBRANCH  57  58
ENDBRANCH  55  57
ENDBRANCH  52  55
ENDBRANCH  49  52
ENDBRANCH  47  49
BRANCH  47  72
ATOM     72  C24 non d ame      -9.770  10.095  65.563  0.00  0.00    -0.039 C 
ATOM     73  H35 non d ame      -8.789   9.753  65.234  0.00  0.00     0.036 H 
ATOM     74  H36 non d ame     -10.634   9.435  65.477  0.00  0.00     0.036 H 
BRANCH  72  75
ATOM     75  C25 non d ame     -10.108  11.425  64.737  0.00  0.00    -0.001 C 
ATOM     76  C26 non d ame     -11.518  12.078  65.276  0.00  0.00    -0.035 C 
ATOM     77  C27 non d ame     -12.331  12.298  64.216  0.00  0.00     0.085 C 
ATOM     78  H38 non d ame     -12.065  11.345  65.869  0.00  0.00     0.036 H 
ATOM     79  H39 non d ame     -11.339  13.077  65.674  0.00  0.00     0.036 H 
ATOM     80  N5  non d ame     -11.738  11.558  63.043  0.00  0.00    -0.049 N 
ATOM     81  H40 non d ame     -13.285  11.841  64.480  0.00  0.00     0.075 H 
ATOM     82  H41 non d ame     -12.274  13.370  64.024  0.00  0.00     0.075 H 
ATOM     83  C28 non d ame     -10.230  11.174  63.476  0.00  0.00     0.193 C 
ATOM     84  H42 non d ame     -12.270  10.705  62.943  0.00  0.00     0.280 HD
ATOM     85  H43 non d ame     -11.694  12.217  62.279  0.00  0.00     0.280 HD
ATOM     86  H44 non d ame      -9.381  11.731  63.079  0.00  0.00     0.129 H 
ATOM     87  H37 non d ame      -9.250  12.093  64.660  0.00  0.00     0.046 H 
BRANCH  83  88
ATOM     88  O6  non d ame      -9.964   9.804  63.171  0.00  0.00    -0.369 OA
ATOM     89  H45 non d ame     -10.362   9.581  62.327  0.00  0.00     0.212 HD
ENDBRANCH  83  88
ENDBRANCH  72  75
ENDBRANCH  47  72
ENDBRANCH  45  47
ENDBRANCH   1  43
BRANCH   1  90
ATOM     90  C16 non d ame      -6.469  12.783  69.558  0.00  0.00    -0.035 C 
ATOM     91  H21 non d ame      -6.396  13.719  70.113  0.00  0.00     0.037 H 
ATOM     92  H22 non d ame      -7.131  11.992  69.909  0.00  0.00     0.037 H 
BRANCH  90  93
ATOM     93  C17 non d ame      -5.031  12.176  69.527  0.00  0.00    -0.059 C 
ATOM     94  H23 non d ame      -5.026  11.305  70.183  0.00  0.00     0.038 H 
BRANCH  93  95
ATOM     95  C18 non d ame      -4.621  11.699  68.098  0.00  0.00    -0.073 C 
ATOM     96  H24 non d ame      -3.775  11.016  68.171  0.00  0.00     0.028 H 
ATOM     97  H25 non d ame      -5.462  11.186  67.631  0.00  0.00     0.028 H 
ATOM     98  H26 non d ame      -4.342  12.561  67.493  0.00  0.00     0.028 H 
ENDBRANCH  93  95
BRANCH  93  99
ATOM     99  C19 non d ame      -4.007  13.168  70.085  0.00  0.00    -0.073 C 
ATOM    100  H27 non d ame      -4.519  13.915  70.692  0.00  0.00     0.028 H 
ATOM    101  H28 non d ame      -3.282  12.635  70.701  0.00  0.00     0.028 H 
ATOM    102  H29 non d ame      -3.492  13.660  69.261  0.00  0.00     0.028 H 
ENDBRANCH  93  99
ENDBRANCH  90  93
ENDBRANCH   1  90
TORSDOF 26
ENDMDL
MODEL 8
REMARK VINA RESULT:      -6.7      4.079     10.207
REMARK  26 active torsions:
REMARK  status: ('A' for Active; 'I' for Inactive)
REMARK    1  A    between atoms: C2_2  and  C3_3 
REMARK    2  A    between atoms: C4_6  and  C5_7 
REMARK       I    between atoms: C5_7  and  N2_9 
REMARK    3  A    between atoms: N2_9  and  C6_10 
REMARK    4  A    between atoms: C6_10  and  C7_11 
REMARK    5  A    between atoms: C6_10  and  C8_13 
REMARK       I    between atoms: C7_11  and  N3_14 
REMARK    6  A    between atoms: N3_14  and  C9_15 
REMARK    7  A    between atoms: C9_15  and  C10_16 
REMARK    8  A    between atoms: C9_15  and  C11_18 
REMARK       I    between atoms: C10_16  and  N4_21 
REMARK    9  A    between atoms: C11_18  and  C12_19 
REMARK   10  A    between atoms: C11_18  and  C13_20 
REMARK   11  A    between atoms: N4_21  and  C14_22 
REMARK   12  A    between atoms: C14_22  and  C15_23 
REMARK   13  A    between atoms: C14_22  and  C16_25 
REMARK       I    between atoms: C15_23  and  N6_40 
REMARK   14  A    between atoms: C16_25  and  C17_26 
REMARK   15  A    between atoms: C17_26  and  C18_27 
REMARK   16  A    between atoms: C17_26  and  C19_28 
REMARK   17  A    between atoms: C20_29  and  C21_30 
REMARK   18  A    between atoms: C20_29  and  C24_33 
REMARK   19  A    between atoms: C20_29  and  N6_40 
REMARK   20  A    between atoms: C21_30  and  C22_31 
REMARK   21  A    between atoms: C22_31  and  C23_32 
REMARK   22  A    between atoms: C23_32  and  O8_43 
REMARK   23  A    between atoms: C24_33  and  C25_34 
REMARK   24  A    between atoms: C28_38  and  O6_39 
REMARK   25  A    between atoms: C29_42  and  O8_43 
REMARK   26  A    between atoms: C29_42  and  C35_49 
ROOT
ATOM      1  C14 non d ame      -8.138   6.327  63.948  0.00  0.00     0.089 C 
ATOM      2  H20 non d ame      -8.795   6.417  63.084  0.00  0.00     0.087 H 
ENDROOT
BRANCH   1   3
ATOM      3  N4  non d ame      -7.963   7.660  64.507  0.00  0.00    -0.346 N 
ATOM      4  C10 non d ame      -8.293   8.880  63.684  0.00  0.00     0.241 C 
ATOM      5  O4  non d ame      -8.696   8.764  62.573  0.00  0.00    -0.271 OA
ATOM      6  H19 non d ame      -7.617   7.737  65.453  0.00  0.00     0.163 HD
BRANCH   4   7
ATOM      7  C9  non d ame      -8.112  10.251  64.280  0.00  0.00     0.092 C 
ATOM      8  H11 non d ame      -7.717  10.923  63.518  0.00  0.00     0.088 H 
BRANCH   7   9
ATOM      9  N3  non d ame      -9.415  10.782  64.690  0.00  0.00    -0.346 N 
ATOM     10  C7  non d ame     -10.139  11.673  63.818  0.00  0.00     0.240 C 
ATOM     11  O3  non d ame      -9.686  11.976  62.782  0.00  0.00    -0.271 OA
ATOM     12  H10 non d ame      -9.818  10.531  65.582  0.00  0.00     0.163 HD
BRANCH  10  13
ATOM     13  C6  non d ame     -11.523  12.238  64.263  0.00  0.00     0.086 C 
ATOM     14  H6  non d ame     -11.801  11.930  65.271  0.00  0.00     0.086 H 
BRANCH  13  15
ATOM     15  N2  non d ame     -11.458  13.690  64.274  0.00  0.00    -0.343 N 
ATOM     16  C5  non d ame     -10.803  14.373  65.392  0.00  0.00     0.273 C 
ATOM     17  O2  non d ame     -10.333  13.746  66.277  0.00  0.00    -0.266 OA
ATOM     18  H5  non d ame     -11.864  14.218  63.516  0.00  0.00     0.163 HD
BRANCH  16  19
ATOM     19  C4  non d ame     -10.725  15.908  65.417  0.00  0.00     0.154 A 
ATOM     20  C1  non d ame     -10.136  16.727  66.432  0.00  0.00    -0.017 A 
ATOM     21  C2  non d ame     -10.325  18.053  65.984  0.00  0.00     0.077 A 
ATOM     22  H1  non d ame      -9.647  16.408  67.353  0.00  0.00     0.091 H 
ATOM     23  O1  non d ame     -10.948  17.992  64.843  0.00  0.00    -0.218 OA
ATOM     24  N1  non d ame     -11.193  16.750  64.492  0.00  0.00    -0.123 NA
BRANCH  21  25
ATOM     25  C3  non d ame      -9.879  19.320  66.701  0.00  0.00    -0.029 C 
ATOM     26  H2  non d ame      -8.964  19.118  67.261  0.00  0.00     0.036 H 
ATOM     27  H3  non d ame      -9.691  20.105  65.969  0.00  0.00     0.036 H 
ATOM     28  H4  non d ame     -10.661  19.644  67.388  0.00  0.00     0.036 H 
ENDBRANCH  21  25
ENDBRANCH  16  19
ENDBRANCH  13  15
BRANCH  13  29
ATOM     29  C8  non d ame     -12.590  11.777  63.302  0.00  0.00    -0.049 C 
ATOM     30  H7  non d ame     -12.750  12.542  62.542  0.00  0.00     0.030 H 
ATOM     31  H8  non d ame     -12.271  10.850  62.823  0.00  0.00     0.030 H 
ATOM     32  H9  non d ame     -13.518  11.605  63.844  0.00  0.00     0.030 H 
ENDBRANCH  13  29
ENDBRANCH  10  13
ENDBRANCH   7   9
BRANCH   7  33
ATOM     33  C11 non d ame      -7.177  10.158  65.521  0.00  0.00    -0.033 C 
ATOM     34  H12 non d ame      -7.200   9.126  65.873  0.00  0.00     0.042 H 
BRANCH  33  35
ATOM     35  C12 non d ame      -5.700  10.495  65.147  0.00  0.00    -0.071 C 
ATOM     36  H13 non d ame      -5.371   9.838  64.342  0.00  0.00     0.028 H 
ATOM     37  H14 non d ame      -5.636  11.532  64.819  0.00  0.00     0.028 H 
ATOM     38  H15 non d ame      -5.064  10.350  66.020  0.00  0.00     0.028 H 
ENDBRANCH  33  35
BRANCH  33  39
ATOM     39  C13 non d ame      -7.692  11.074  66.678  0.00  0.00    -0.071 C 
ATOM     40  H16 non d ame      -7.783  12.098  66.317  0.00  0.00     0.028 H 
ATOM     41  H17 non d ame      -8.666  10.720  67.017  0.00  0.00     0.028 H 
ATOM     42  H18 non d ame      -6.985  11.042  67.506  0.00  0.00     0.028 H 
ENDBRANCH  33  39
ENDBRANCH   7  33
ENDBRANCH   4   7
ENDBRANCH   1   3
BRANCH   1  43
ATOM     43  C15 non d ame      -8.736   5.404  65.048  0.00  0.00     0.240 C 
ATOM     44  O5  non d ame      -9.440   4.496  64.739  0.00  0.00    -0.271 OA
ATOM     45  N6  non d ame      -8.426   5.645  66.486  0.00  0.00    -0.355 N 
ATOM     46  H46 non d ame      -7.826   6.410  66.760  0.00  0.00     0.162 HD
BRANCH  45  47
ATOM     47  C20 non d ame      -9.001   4.757  67.519  0.00  0.00     0.013 C 
ATOM     48  H30 non d ame      -9.711   4.090  67.030  0.00  0.00     0.072 H 
BRANCH  47  49
ATOM     49  C21 non d ame      -9.712   5.594  68.558  0.00  0.00    -0.038 C 
ATOM     50  H31 non d ame     -10.228   4.885  69.206  0.00  0.00     0.036 H 
ATOM     51  H32 non d ame      -8.951   6.258  68.971  0.00  0.00     0.036 H 
BRANCH  49  52
ATOM     52  C22 non d ame     -10.802   6.504  67.952  0.00  0.00     0.018 C 
ATOM     53  H33 non d ame     -11.031   6.080  66.974  0.00  0.00     0.048 H 
ATOM     54  H34 non d ame     -11.581   6.578  68.711  0.00  0.00     0.048 H 
BRANCH  52  55
ATOM     55  C23 non d ame     -10.324   7.959  67.685  0.00  0.00     0.259 C 
ATOM     56  O7  non d ame     -10.143   8.339  66.574  0.00  0.00    -0.265 OA
BRANCH  55  57
ATOM     57  O8  non d ame     -10.091   8.830  68.785  0.00  0.00    -0.317 OA
BRANCH  57  58
ATOM     58  C29 non d ame     -11.107   8.782  69.791  0.00  0.00     0.052 C 
ATOM     59  H47 non d ame     -11.477   9.803  69.886  0.00  0.00     0.082 H 
ATOM     60  H48 non d ame     -11.784   7.983  69.489  0.00  0.00     0.082 H 
BRANCH  58  61
ATOM     61  C35 non d ame     -10.436   8.377  71.130  0.00  0.00    -0.034 A 
ATOM     62  C30 non d ame      -9.074   8.589  71.319  0.00  0.00    -0.075 A 
ATOM     63  C31 non d ame      -8.471   8.224  72.522  0.00  0.00    -0.082 A 
ATOM     64  H49 non d ame      -8.480   9.040  70.525  0.00  0.00     0.084 H 
ATOM     65  C32 non d ame      -9.235   7.643  73.537  0.00  0.00    -0.083 A 
ATOM     66  H50 non d ame      -7.405   8.393  72.667  0.00  0.00     0.083 H 
ATOM     67  C33 non d ame     -10.593   7.430  73.344  0.00  0.00    -0.082 A 
ATOM     68  H51 non d ame      -8.772   7.355  74.481  0.00  0.00     0.083 H 
ATOM     69  C34 non d ame     -11.200   7.796  72.144  0.00  0.00    -0.075 A 
ATOM     70  H52 non d ame     -11.186   6.975  74.137  0.00  0.00     0.083 H 
ATOM     71  H53 non d ame     -12.269   7.626  71.999  0.00  0.00     0.084 H 
ENDBRANCH  58  61
ENDBRANCH  57  58
ENDBRANCH  55  57
ENDBRANCH  52  55
ENDBRANCH  49  52
ENDBRANCH  47  49
BRANCH  47  72
ATOM     72  C24 non d ame      -7.888   3.952  68.186  0.00  0.00    -0.039 C 
ATOM     73  H35 non d ame      -7.895   4.259  69.232  0.00  0.00     0.036 H 
ATOM     74  H36 non d ame      -8.084   2.912  67.923  0.00  0.00     0.036 H 
BRANCH  72  75
ATOM     75  C25 non d ame      -6.448   4.327  67.592  0.00  0.00    -0.001 C 
ATOM     76  C26 non d ame      -5.744   2.991  66.942  0.00  0.00    -0.035 C 
ATOM     77  C27 non d ame      -4.497   2.862  67.454  0.00  0.00     0.085 C 
ATOM     78  H38 non d ame      -6.256   2.093  67.290  0.00  0.00     0.036 H 
ATOM     79  H39 non d ame      -5.569   3.141  65.877  0.00  0.00     0.036 H 
ATOM     80  N5  non d ame      -4.404   3.798  68.634  0.00  0.00    -0.049 N 
ATOM     81  H40 non d ame      -4.432   1.833  67.810  0.00  0.00     0.075 H 
ATOM     82  H41 non d ame      -3.824   3.211  66.671  0.00  0.00     0.075 H 
ATOM     83  C28 non d ame      -5.671   4.793  68.512  0.00  0.00     0.193 C 
ATOM     84  H42 non d ame      -4.521   3.229  69.461  0.00  0.00     0.280 HD
ATOM     85  H43 non d ame      -3.560   4.337  68.508  0.00  0.00     0.280 HD
ATOM     86  H44 non d ame      -5.538   5.817  68.161  0.00  0.00     0.129 H 
ATOM     87  H37 non d ame      -6.478   5.223  66.973  0.00  0.00     0.046 H 
BRANCH  83  88
ATOM     88  O6  non d ame      -6.332   4.904  69.773  0.00  0.00    -0.369 OA
ATOM     89  H45 non d ame      -7.114   5.452  69.677  0.00  0.00     0.212 HD
ENDBRANCH  83  88
ENDBRANCH  72  75
ENDBRANCH  47  72
ENDBRANCH  45  47
ENDBRANCH   1  43
BRANCH   1  90
ATOM     90  C16 non d ame      -6.783   5.790  63.511  0.00  0.00    -0.035 C 
ATOM     91  H21 non d ame      -6.720   4.788  63.937  0.00  0.00     0.037 H 
ATOM     92  H22 non d ame      -6.754   5.926  62.431  0.00  0.00     0.037 H 
BRANCH  90  93
ATOM     93  C17 non d ame      -5.575   6.592  64.091  0.00  0.00    -0.059 C 
ATOM     94  H23 non d ame      -5.962   7.267  64.854  0.00  0.00     0.038 H 
BRANCH  93  95
ATOM     95  C18 non d ame      -4.519   5.662  64.767  0.00  0.00    -0.073 C 
ATOM     96  H24 non d ame      -3.570   6.192  64.852  0.00  0.00     0.028 H 
ATOM     97  H25 non d ame      -4.867   5.380  65.761  0.00  0.00     0.028 H 
ATOM     98  H26 non d ame      -4.383   4.766  64.163  0.00  0.00     0.028 H 
ENDBRANCH  93  95
BRANCH  93  99
ATOM     99  C19 non d ame      -4.925   7.458  63.008  0.00  0.00    -0.073 C 
ATOM    100  H27 non d ame      -5.676   8.117  62.571  0.00  0.00     0.028 H 
ATOM    101  H28 non d ame      -4.130   8.058  63.451  0.00  0.00     0.028 H 
ATOM    102  H29 non d ame      -4.509   6.817  62.232  0.00  0.00     0.028 H 
ENDBRANCH  93  99
ENDBRANCH  90  93
ENDBRANCH   1  90
TORSDOF 26
ENDMDL
MODEL 9
REMARK VINA RESULT:      -6.5      3.417      7.647
REMARK  26 active torsions:
REMARK  status: ('A' for Active; 'I' for Inactive)
REMARK    1  A    between atoms: C2_2  and  C3_3 
REMARK    2  A    between atoms: C4_6  and  C5_7 
REMARK       I    between atoms: C5_7  and  N2_9 
REMARK    3  A    between atoms: N2_9  and  C6_10 
REMARK    4  A    between atoms: C6_10  and  C7_11 
REMARK    5  A    between atoms: C6_10  and  C8_13 
REMARK       I    between atoms: C7_11  and  N3_14 
REMARK    6  A    between atoms: N3_14  and  C9_15 
REMARK    7  A    between atoms: C9_15  and  C10_16 
REMARK    8  A    between atoms: C9_15  and  C11_18 
REMARK       I    between atoms: C10_16  and  N4_21 
REMARK    9  A    between atoms: C11_18  and  C12_19 
REMARK   10  A    between atoms: C11_18  and  C13_20 
REMARK   11  A    between atoms: N4_21  and  C14_22 
REMARK   12  A    between atoms: C14_22  and  C15_23 
REMARK   13  A    between atoms: C14_22  and  C16_25 
REMARK       I    between atoms: C15_23  and  N6_40 
REMARK   14  A    between atoms: C16_25  and  C17_26 
REMARK   15  A    between atoms: C17_26  and  C18_27 
REMARK   16  A    between atoms: C17_26  and  C19_28 
REMARK   17  A    between atoms: C20_29  and  C21_30 
REMARK   18  A    between atoms: C20_29  and  C24_33 
REMARK   19  A    between atoms: C20_29  and  N6_40 
REMARK   20  A    between atoms: C21_30  and  C22_31 
REMARK   21  A    between atoms: C22_31  and  C23_32 
REMARK   22  A    between atoms: C23_32  and  O8_43 
REMARK   23  A    between atoms: C24_33  and  C25_34 
REMARK   24  A    between atoms: C28_38  and  O6_39 
REMARK   25  A    between atoms: C29_42  and  O8_43 
REMARK   26  A    between atoms: C29_42  and  C35_49 
ROOT
ATOM      1  C14 non d ame     -10.626  10.672  67.362  0.00  0.00     0.089 C 
ATOM      2  H20 non d ame      -9.568  10.823  67.578  0.00  0.00     0.087 H 
ENDROOT
BRANCH   1   3
ATOM      3  N4  non d ame     -10.977   9.331  67.806  0.00  0.00    -0.346 N 
ATOM      4  C10 non d ame     -10.077   8.583  68.758  0.00  0.00     0.241 C 
ATOM      5  O4  non d ame      -9.073   9.081  69.150  0.00  0.00    -0.271 OA
ATOM      6  H19 non d ame     -11.834   8.924  67.458  0.00  0.00     0.163 HD
BRANCH   4   7
ATOM      7  C9  non d ame     -10.458   7.199  69.211  0.00  0.00     0.092 C 
ATOM      8  H11 non d ame     -11.516   7.034  69.010  0.00  0.00     0.088 H 
BRANCH   7   9
ATOM      9  N3  non d ame      -9.711   6.206  68.433  0.00  0.00    -0.346 N 
ATOM     10  C7  non d ame     -10.147   5.853  67.106  0.00  0.00     0.240 C 
ATOM     11  O3  non d ame     -11.099   6.357  66.647  0.00  0.00    -0.271 OA
ATOM     12  H10 non d ame      -8.889   5.762  68.816  0.00  0.00     0.163 HD
BRANCH  10  13
ATOM     13  C6  non d ame      -9.349   4.793  66.285  0.00  0.00     0.086 C 
ATOM     14  H6  non d ame      -9.913   4.403  65.437  0.00  0.00     0.086 H 
BRANCH  13  15
ATOM     15  N2  non d ame      -8.158   5.421  65.737  0.00  0.00    -0.343 N 
ATOM     16  C5  non d ame      -7.981   5.488  64.285  0.00  0.00     0.273 C 
ATOM     17  O2  non d ame      -8.801   5.033  63.566  0.00  0.00    -0.266 OA
ATOM     18  H5  non d ame      -7.461   5.805  66.358  0.00  0.00     0.163 HD
BRANCH  16  19
ATOM     19  C4  non d ame      -6.727   6.151  63.692  0.00  0.00     0.154 A 
ATOM     20  C1  non d ame      -6.413   7.547  63.676  0.00  0.00    -0.017 A 
ATOM     21  C2  non d ame      -5.163   7.631  63.023  0.00  0.00     0.077 A 
ATOM     22  H1  non d ame      -7.001   8.373  64.077  0.00  0.00     0.091 H 
ATOM     23  O1  non d ame      -4.809   6.419  62.706  0.00  0.00    -0.218 OA
ATOM     24  N1  non d ame      -5.707   5.538  63.086  0.00  0.00    -0.123 NA
BRANCH  21  25
ATOM     25  C3  non d ame      -4.376   8.903  62.744  0.00  0.00    -0.029 C 
ATOM     26  H2  non d ame      -3.847   9.211  63.647  0.00  0.00     0.036 H 
ATOM     27  H3  non d ame      -3.655   8.717  61.948  0.00  0.00     0.036 H 
ATOM     28  H4  non d ame      -5.060   9.695  62.436  0.00  0.00     0.036 H 
ENDBRANCH  21  25
ENDBRANCH  16  19
ENDBRANCH  13  15
BRANCH  13  29
ATOM     29  C8  non d ame      -8.962   3.645  67.181  0.00  0.00    -0.049 C 
ATOM     30  H7  non d ame      -8.959   2.719  66.606  0.00  0.00     0.030 H 
ATOM     31  H8  non d ame      -7.965   3.823  67.589  0.00  0.00     0.030 H 
ATOM     32  H9  non d ame      -9.679   3.563  67.997  0.00  0.00     0.030 H 
ENDBRANCH  13  29
ENDBRANCH  10  13
ENDBRANCH   7   9
BRANCH   7  33
ATOM     33  C11 non d ame     -10.117   7.035  70.722  0.00  0.00    -0.033 C 
ATOM     34  H12 non d ame      -9.114   7.434  70.877  0.00  0.00     0.042 H 
BRANCH  33  35
ATOM     35  C12 non d ame     -11.093   7.860  71.617  0.00  0.00    -0.071 C 
ATOM     36  H13 non d ame     -11.609   8.601  71.006  0.00  0.00     0.028 H 
ATOM     37  H14 non d ame     -11.824   7.190  72.070  0.00  0.00     0.028 H 
ATOM     38  H15 non d ame     -10.528   8.363  72.401  0.00  0.00     0.028 H 
ENDBRANCH  33  35
BRANCH  33  39
ATOM     39  C13 non d ame     -10.108   5.528  71.132  0.00  0.00    -0.071 C 
ATOM     40  H16 non d ame     -10.144   4.908  70.237  0.00  0.00     0.028 H 
ATOM     41  H17 non d ame      -9.197   5.309  71.691  0.00  0.00     0.028 H 
ATOM     42  H18 non d ame     -10.976   5.317  71.755  0.00  0.00     0.028 H 
ENDBRANCH  33  39
ENDBRANCH   7  33
ENDBRANCH   4   7
ENDBRANCH   1   3
BRANCH   1  43
ATOM     43  C15 non d ame     -11.530  11.693  68.109  0.00  0.00     0.240 C 
ATOM     44  O5  non d ame     -12.493  11.313  68.695  0.00  0.00    -0.271 OA
ATOM     45  N6  non d ame     -11.191  13.145  68.104  0.00  0.00    -0.355 N 
ATOM     46  H46 non d ame     -10.374  13.479  67.614  0.00  0.00     0.162 HD
BRANCH  45  47
ATOM     47  C20 non d ame     -12.060  14.103  68.820  0.00  0.00     0.013 C 
ATOM     48  H30 non d ame     -13.093  13.885  68.550  0.00  0.00     0.072 H 
BRANCH  47  49
ATOM     49  C21 non d ame     -11.704  15.512  68.401  0.00  0.00    -0.038 C 
ATOM     50  H31 non d ame     -12.613  15.930  67.970  0.00  0.00     0.036 H 
ATOM     51  H32 non d ame     -11.253  15.974  69.280  0.00  0.00     0.036 H 
BRANCH  49  52
ATOM     52  C22 non d ame     -10.633  15.554  67.290  0.00  0.00     0.018 C 
ATOM     53  H33 non d ame      -9.681  15.364  67.788  0.00  0.00     0.048 H 
ATOM     54  H34 non d ame     -10.986  14.875  66.513  0.00  0.00     0.048 H 
BRANCH  52  55
ATOM     55  C23 non d ame     -10.489  16.945  66.612  0.00  0.00     0.259 C 
ATOM     56  O7  non d ame     -10.175  17.028  65.469  0.00  0.00    -0.265 OA
BRANCH  55  57
ATOM     57  O8  non d ame     -10.724  18.121  67.376  0.00  0.00    -0.317 OA
BRANCH  57  58
ATOM     58  C29 non d ame     -10.228  19.318  66.771  0.00  0.00     0.052 C 
ATOM     59  H47 non d ame     -10.201  19.119  65.700  0.00  0.00     0.082 H 
ATOM     60  H48 non d ame     -10.850  20.124  67.160  0.00  0.00     0.082 H 
BRANCH  58  61
ATOM     61  C35 non d ame      -8.774  19.538  67.266  0.00  0.00    -0.034 A 
ATOM     62  C30 non d ame      -7.784  19.928  66.370  0.00  0.00    -0.075 A 
ATOM     63  C31 non d ame      -6.478  20.125  66.814  0.00  0.00    -0.082 A 
ATOM     64  H49 non d ame      -8.032  20.078  65.320  0.00  0.00     0.084 H 
ATOM     65  C32 non d ame      -6.163  19.930  68.162  0.00  0.00    -0.083 A 
ATOM     66  H50 non d ame      -5.705  20.432  66.110  0.00  0.00     0.083 H 
ATOM     67  C33 non d ame      -7.153  19.538  69.053  0.00  0.00    -0.082 A 
ATOM     68  H51 non d ame      -5.144  20.082  68.518  0.00  0.00     0.083 H 
ATOM     69  C34 non d ame      -8.460  19.342  68.612  0.00  0.00    -0.075 A 
ATOM     70  H52 non d ame      -6.903  19.384  70.103  0.00  0.00     0.083 H 
ATOM     71  H53 non d ame      -9.233  19.035  69.319  0.00  0.00     0.084 H 
ENDBRANCH  58  61
ENDBRANCH  57  58
ENDBRANCH  55  57
ENDBRANCH  52  55
ENDBRANCH  49  52
ENDBRANCH  47  49
BRANCH  47  72
ATOM     72  C24 non d ame     -11.862  13.953  70.326  0.00  0.00    -0.039 C 
ATOM     73  H35 non d ame     -12.189  12.941  70.563  0.00  0.00     0.036 H 
ATOM     74  H36 non d ame     -10.830  14.251  70.515  0.00  0.00     0.036 H 
BRANCH  72  75
ATOM     75  C25 non d ame     -12.800  14.957  71.150  0.00  0.00    -0.001 C 
ATOM     76  C26 non d ame     -11.877  16.037  71.978  0.00  0.00    -0.035 C 
ATOM     77  C27 non d ame     -12.269  16.045  73.274  0.00  0.00     0.085 C 
ATOM     78  H38 non d ame     -10.846  15.686  72.026  0.00  0.00     0.036 H 
ATOM     79  H39 non d ame     -12.092  17.051  71.639  0.00  0.00     0.036 H 
ATOM     80  N5  non d ame     -13.153  14.838  73.475  0.00  0.00    -0.049 N 
ATOM     81  H40 non d ame     -11.357  15.918  73.856  0.00  0.00     0.075 H 
ATOM     82  H41 non d ame     -12.870  16.947  73.390  0.00  0.00     0.075 H 
ATOM     83  C28 non d ame     -13.539  14.319  71.995  0.00  0.00     0.193 C 
ATOM     84  H42 non d ame     -12.582  14.136  73.923  0.00  0.00     0.280 HD
ATOM     85  H43 non d ame     -13.993  15.170  73.928  0.00  0.00     0.280 HD
ATOM     86  H44 non d ame     -14.529  14.513  71.581  0.00  0.00     0.129 H 
ATOM     87  H37 non d ame     -13.609  15.361  70.541  0.00  0.00     0.046 H 
BRANCH  83  88
ATOM     88  O6  non d ame     -13.360  12.904  71.908  0.00  0.00    -0.369 OA
ATOM     89  H45 non d ame     -12.426  12.695  71.980  0.00  0.00     0.212 HD
ENDBRANCH  83  88
ENDBRANCH  72  75
ENDBRANCH  47  72
ENDBRANCH  45  47
ENDBRANCH   1  43
BRANCH   1  90
ATOM     90  C16 non d ame     -10.865  10.777  65.864  0.00  0.00    -0.035 C 
ATOM     91  H21 non d ame     -10.829   9.753  65.493  0.00  0.00     0.037 H 
ATOM     92  H22 non d ame     -11.778  11.363  65.758  0.00  0.00     0.037 H 
BRANCH  90  93
ATOM     93  C17 non d ame      -9.748  11.560  65.105  0.00  0.00    -0.059 C 
ATOM     94  H23 non d ame      -9.012  11.882  65.841  0.00  0.00     0.038 H 
BRANCH  93  95
ATOM     95  C18 non d ame      -9.012  10.669  64.054  0.00  0.00    -0.073 C 
ATOM     96  H24 non d ame      -7.954  10.603  64.310  0.00  0.00     0.028 H 
ATOM     97  H25 non d ame      -9.448   9.669  64.057  0.00  0.00     0.028 H 
ATOM     98  H26 non d ame      -9.121  11.109  63.063  0.00  0.00     0.028 H 
ENDBRANCH  93  95
BRANCH  93  99
ATOM     99  C19 non d ame     -10.314  12.822  64.448  0.00  0.00    -0.073 C 
ATOM    100  H27 non d ame     -10.964  12.539  63.619  0.00  0.00     0.028 H 
ATOM    101  H28 non d ame     -10.888  13.388  65.182  0.00  0.00     0.028 H 
ATOM    102  H29 non d ame      -9.496  13.435  64.074  0.00  0.00     0.028 H 
ENDBRANCH  93  99
ENDBRANCH  90  93
ENDBRANCH   1  90
TORSDOF 26
ENDMDL
MODEL 10
REMARK VINA RESULT:      -6.5      2.894      7.818
REMARK  26 active torsions:
REMARK  status: ('A' for Active; 'I' for Inactive)
REMARK    1  A    between atoms: C2_2  and  C3_3 
REMARK    2  A    between atoms: C4_6  and  C5_7 
REMARK       I    between atoms: C5_7  and  N2_9 
REMARK    3  A    between atoms: N2_9  and  C6_10 
REMARK    4  A    between atoms: C6_10  and  C7_11 
REMARK    5  A    between atoms: C6_10  and  C8_13 
REMARK       I    between atoms: C7_11  and  N3_14 
REMARK    6  A    between atoms: N3_14  and  C9_15 
REMARK    7  A    between atoms: C9_15  and  C10_16 
REMARK    8  A    between atoms: C9_15  and  C11_18 
REMARK       I    between atoms: C10_16  and  N4_21 
REMARK    9  A    between atoms: C11_18  and  C12_19 
REMARK   10  A    between atoms: C11_18  and  C13_20 
REMARK   11  A    between atoms: N4_21  and  C14_22 
REMARK   12  A    between atoms: C14_22  and  C15_23 
REMARK   13  A    between atoms: C14_22  and  C16_25 
REMARK       I    between atoms: C15_23  and  N6_40 
REMARK   14  A    between atoms: C16_25  and  C17_26 
REMARK   15  A    between atoms: C17_26  and  C18_27 
REMARK   16  A    between atoms: C17_26  and  C19_28 
REMARK   17  A    between atoms: C20_29  and  C21_30 
REMARK   18  A    between atoms: C20_29  and  C24_33 
REMARK   19  A    between atoms: C20_29  and  N6_40 
REMARK   20  A    between atoms: C21_30  and  C22_31 
REMARK   21  A    between atoms: C22_31  and  C23_32 
REMARK   22  A    between atoms: C23_32  and  O8_43 
REMARK   23  A    between atoms: C24_33  and  C25_34 
REMARK   24  A    between atoms: C28_38  and  O6_39 
REMARK   25  A    between atoms: C29_42  and  O8_43 
REMARK   26  A    between atoms: C29_42  and  C35_49 
ROOT
ATOM      1  C14 non d ame      -9.379   9.673  65.951  0.00  0.00     0.089 C 
ATOM      2  H20 non d ame      -8.372  10.076  66.062  0.00  0.00     0.087 H 
ENDROOT
BRANCH   1   3
ATOM      3  N4  non d ame      -9.382   8.335  66.523  0.00  0.00    -0.346 N 
ATOM      4  C10 non d ame      -8.088   7.586  66.716  0.00  0.00     0.241 C 
ATOM      5  O4  non d ame      -7.055   8.081  66.401  0.00  0.00    -0.271 OA
ATOM      6  H19 non d ame     -10.272   7.931  66.782  0.00  0.00     0.163 HD
BRANCH   4   7
ATOM      7  C9  non d ame      -8.108   6.205  67.314  0.00  0.00     0.092 C 
ATOM      8  H11 non d ame      -7.093   5.808  67.337  0.00  0.00     0.088 H 
BRANCH   7   9
ATOM      9  N3  non d ame      -8.575   6.279  68.702  0.00  0.00    -0.346 N 
ATOM     10  C7  non d ame      -7.645   6.089  69.787  0.00  0.00     0.240 C 
ATOM     11  O3  non d ame      -6.517   5.872  69.562  0.00  0.00    -0.271 OA
ATOM     12  H10 non d ame      -9.546   6.463  68.911  0.00  0.00     0.163 HD
BRANCH  10  13
ATOM     13  C6  non d ame      -8.149   6.166  71.261  0.00  0.00     0.086 C 
ATOM     14  H6  non d ame      -7.582   6.875  71.865  0.00  0.00     0.086 H 
BRANCH  13  15
ATOM     15  N2  non d ame      -9.527   6.626  71.264  0.00  0.00    -0.343 N 
ATOM     16  C5  non d ame      -9.822   8.019  71.613  0.00  0.00     0.273 C 
ATOM     17  O2  non d ame      -8.943   8.758  71.891  0.00  0.00    -0.266 OA
ATOM     18  H5  non d ame     -10.272   5.988  71.028  0.00  0.00     0.163 HD
BRANCH  16  19
ATOM     19  C4  non d ame     -11.274   8.520  71.618  0.00  0.00     0.154 A 
ATOM     20  C1  non d ame     -12.459   7.735  71.785  0.00  0.00    -0.017 A 
ATOM     21  C2  non d ame     -13.523   8.662  71.712  0.00  0.00     0.077 A 
ATOM     22  H1  non d ame     -12.536   6.658  71.935  0.00  0.00     0.091 H 
ATOM     23  O1  non d ame     -12.999   9.839  71.527  0.00  0.00    -0.218 OA
ATOM     24  N1  non d ame     -11.688   9.781  71.468  0.00  0.00    -0.123 NA
BRANCH  21  25
ATOM     25  C3  non d ame     -15.007   8.342  71.832  0.00  0.00    -0.029 C 
ATOM     26  H2  non d ame     -15.483   8.456  70.857  0.00  0.00     0.036 H 
ATOM     27  H3  non d ame     -15.130   7.317  72.179  0.00  0.00     0.036 H 
ATOM     28  H4  non d ame     -15.470   9.025  72.544  0.00  0.00     0.036 H 
ENDBRANCH  21  25
ENDBRANCH  16  19
ENDBRANCH  13  15
BRANCH  13  29
ATOM     29  C8  non d ame      -8.059   4.803  71.899  0.00  0.00    -0.049 C 
ATOM     30  H7  non d ame      -8.529   4.065  71.248  0.00  0.00     0.030 H 
ATOM     31  H8  non d ame      -7.011   4.540  72.048  0.00  0.00     0.030 H 
ATOM     32  H9  non d ame      -8.570   4.817  72.860  0.00  0.00     0.030 H 
ENDBRANCH  13  29
ENDBRANCH  10  13
ENDBRANCH   7   9
BRANCH   7  33
ATOM     33  C11 non d ame      -9.072   5.298  66.493  0.00  0.00    -0.033 C 
ATOM     34  H12 non d ame     -10.071   5.727  66.570  0.00  0.00     0.042 H 
BRANCH  33  35
ATOM     35  C12 non d ame      -8.684   5.279  64.982  0.00  0.00    -0.071 C 
ATOM     36  H13 non d ame      -9.575   5.099  64.381  0.00  0.00     0.028 H 
ATOM     37  H14 non d ame      -8.248   6.239  64.706  0.00  0.00     0.028 H 
ATOM     38  H15 non d ame      -7.958   4.486  64.804  0.00  0.00     0.028 H 
ENDBRANCH  33  35
BRANCH  33  39
ATOM     39  C13 non d ame      -9.119   3.853  67.085  0.00  0.00    -0.071 C 
ATOM     40  H16 non d ame     -10.139   3.474  67.038  0.00  0.00     0.028 H 
ATOM     41  H17 non d ame      -8.462   3.202  66.508  0.00  0.00     0.028 H 
ATOM     42  H18 non d ame      -8.787   3.876  68.123  0.00  0.00     0.028 H 
ENDBRANCH  33  39
ENDBRANCH   7  33
ENDBRANCH   4   7
ENDBRANCH   1   3
BRANCH   1  43
ATOM     43  C15 non d ame     -10.440  10.533  66.697  0.00  0.00     0.240 C 
ATOM     44  O5  non d ame     -11.085  10.049  67.572  0.00  0.00    -0.271 OA
ATOM     45  N6  non d ame     -10.648  11.962  66.327  0.00  0.00    -0.355 N 
ATOM     46  H46 non d ame     -10.105  12.385  65.589  0.00  0.00     0.162 HD
BRANCH  45  47
ATOM     47  C20 non d ame     -11.660  12.765  67.046  0.00  0.00     0.013 C 
ATOM     48  H30 non d ame     -12.445  12.089  67.386  0.00  0.00     0.072 H 
BRANCH  47  49
ATOM     49  C21 non d ame     -12.240  13.798  66.106  0.00  0.00    -0.038 C 
ATOM     50  H31 non d ame     -13.034  13.287  65.561  0.00  0.00     0.036 H 
ATOM     51  H32 non d ame     -12.473  14.663  66.728  0.00  0.00     0.036 H 
BRANCH  49  52
ATOM     52  C22 non d ame     -11.225  14.282  65.048  0.00  0.00     0.018 C 
ATOM     53  H33 non d ame     -10.247  14.222  65.527  0.00  0.00     0.048 H 
ATOM     54  H34 non d ame     -11.430  13.696  64.152  0.00  0.00     0.048 H 
BRANCH  52  55
ATOM     55  C23 non d ame     -11.409  15.770  64.639  0.00  0.00     0.259 C 
ATOM     56  O7  non d ame     -12.323  16.097  63.954  0.00  0.00    -0.265 OA
BRANCH  55  57
ATOM     57  O8  non d ame     -10.465  16.737  65.082  0.00  0.00    -0.317 OA
BRANCH  57  58
ATOM     58  C29 non d ame      -9.610  16.279  66.134  0.00  0.00     0.052 C 
ATOM     59  H47 non d ame     -10.187  15.533  66.680  0.00  0.00     0.082 H 
ATOM     60  H48 non d ame      -8.675  15.997  65.651  0.00  0.00     0.082 H 
BRANCH  58  61
ATOM     61  C35 non d ame      -9.332  17.476  67.081  0.00  0.00    -0.034 A 
ATOM     62  C30 non d ame      -8.132  17.547  67.779  0.00  0.00    -0.075 A 
ATOM     63  C31 non d ame      -7.882  18.623  68.630  0.00  0.00    -0.082 A 
ATOM     64  H49 non d ame      -7.388  16.761  67.661  0.00  0.00     0.084 H 
ATOM     65  C32 non d ame      -8.840  19.629  68.782  0.00  0.00    -0.083 A 
ATOM     66  H50 non d ame      -6.940  18.676  69.175  0.00  0.00     0.083 H 
ATOM     67  C33 non d ame     -10.038  19.553  68.085  0.00  0.00    -0.082 A 
ATOM     68  H51 non d ame      -8.653  20.474  69.446  0.00  0.00     0.083 H 
ATOM     69  C34 non d ame     -10.290  18.480  67.232  0.00  0.00    -0.075 A 
ATOM     70  H52 non d ame     -10.784  20.339  68.208  0.00  0.00     0.083 H 
ATOM     71  H53 non d ame     -11.234  18.428  66.687  0.00  0.00     0.084 H 
ENDBRANCH  58  61
ENDBRANCH  57  58
ENDBRANCH  55  57
ENDBRANCH  52  55
ENDBRANCH  49  52
ENDBRANCH  47  49
BRANCH  47  72
ATOM     72  C24 non d ame     -11.011  13.467  68.237  0.00  0.00    -0.039 C 
ATOM     73  H35 non d ame     -10.581  12.671  68.845  0.00  0.00     0.036 H 
ATOM     74  H36 non d ame     -10.365  14.232  67.806  0.00  0.00     0.036 H 
BRANCH  72  75
ATOM     75  C25 non d ame     -12.096  14.221  69.144  0.00  0.00    -0.001 C 
ATOM     76  C26 non d ame     -11.557  15.726  69.529  0.00  0.00    -0.035 C 
ATOM     77  C27 non d ame     -11.650  15.894  70.869  0.00  0.00     0.085 C 
ATOM     78  H38 non d ame     -10.486  15.799  69.337  0.00  0.00     0.036 H 
ATOM     79  H39 non d ame     -12.235  16.480  69.129  0.00  0.00     0.036 H 
ATOM     80  N5  non d ame     -11.897  14.531  71.469  0.00  0.00    -0.049 N 
ATOM     81  H40 non d ame     -10.671  16.251  71.188  0.00  0.00     0.075 H 
ATOM     82  H41 non d ame     -12.534  16.513  71.023  0.00  0.00     0.075 H 
ATOM     83  C28 non d ame     -12.320  13.573  70.239  0.00  0.00     0.193 C 
ATOM     84  H42 non d ame     -11.009  14.213  71.832  0.00  0.00     0.280 HD
ATOM     85  H43 non d ame     -12.689  14.628  72.087  0.00  0.00     0.280 HD
ATOM     86  H44 non d ame     -13.362  13.289  70.092  0.00  0.00     0.129 H 
ATOM     87  H37 non d ame     -13.102  14.144  68.733  0.00  0.00     0.046 H 
BRANCH  83  88
ATOM     88  O6  non d ame     -11.593  12.345  70.298  0.00  0.00    -0.369 OA
ATOM     89  H45 non d ame     -11.981  11.776  70.966  0.00  0.00     0.212 HD
ENDBRANCH  83  88
ENDBRANCH  72  75
ENDBRANCH  47  72
ENDBRANCH  45  47
ENDBRANCH   1  43
BRANCH   1  90
ATOM     90  C16 non d ame      -9.739   9.584  64.476  0.00  0.00    -0.035 C 
ATOM     91  H21 non d ame     -10.134   8.578  64.336  0.00  0.00     0.037 H 
ATOM     92  H22 non d ame     -10.371  10.450  64.281  0.00  0.00     0.037 H 
BRANCH  90  93
ATOM     93  C17 non d ame      -8.509   9.711  63.523  0.00  0.00    -0.059 C 
ATOM     94  H23 non d ame      -8.773  10.413  62.733  0.00  0.00     0.038 H 
BRANCH  93  95
ATOM     95  C18 non d ame      -7.249  10.271  64.256  0.00  0.00    -0.073 C 
ATOM     96  H24 non d ame      -6.787   9.477  64.844  0.00  0.00     0.028 H 
ATOM     97  H25 non d ame      -6.534  10.639  63.520  0.00  0.00     0.028 H 
ATOM     98  H26 non d ame      -7.544  11.087  64.916  0.00  0.00     0.028 H 
ENDBRANCH  93  95
BRANCH  93  99
ATOM     99  C19 non d ame      -8.197   8.370  62.852  0.00  0.00    -0.073 C 
ATOM    100  H27 non d ame      -8.896   7.614  63.212  0.00  0.00     0.028 H 
ATOM    101  H28 non d ame      -8.297   8.472  61.772  0.00  0.00     0.028 H 
ATOM    102  H29 non d ame      -7.179   8.069  63.097  0.00  0.00     0.028 H 
ENDBRANCH  93  99
ENDBRANCH  90  93
ENDBRANCH   1  90
TORSDOF 26
ENDMDL
MODEL 11
REMARK VINA RESULT:      -6.5      2.034      4.489
REMARK  26 active torsions:
REMARK  status: ('A' for Active; 'I' for Inactive)
REMARK    1  A    between atoms: C2_2  and  C3_3 
REMARK    2  A    between atoms: C4_6  and  C5_7 
REMARK       I    between atoms: C5_7  and  N2_9 
REMARK    3  A    between atoms: N2_9  and  C6_10 
REMARK    4  A    between atoms: C6_10  and  C7_11 
REMARK    5  A    between atoms: C6_10  and  C8_13 
REMARK       I    between atoms: C7_11  and  N3_14 
REMARK    6  A    between atoms: N3_14  and  C9_15 
REMARK    7  A    between atoms: C9_15  and  C10_16 
REMARK    8  A    between atoms: C9_15  and  C11_18 
REMARK       I    between atoms: C10_16  and  N4_21 
REMARK    9  A    between atoms: C11_18  and  C12_19 
REMARK   10  A    between atoms: C11_18  and  C13_20 
REMARK   11  A    between atoms: N4_21  and  C14_22 
REMARK   12  A    between atoms: C14_22  and  C15_23 
REMARK   13  A    between atoms: C14_22  and  C16_25 
REMARK       I    between atoms: C15_23  and  N6_40 
REMARK   14  A    between atoms: C16_25  and  C17_26 
REMARK   15  A    between atoms: C17_26  and  C18_27 
REMARK   16  A    between atoms: C17_26  and  C19_28 
REMARK   17  A    between atoms: C20_29  and  C21_30 
REMARK   18  A    between atoms: C20_29  and  C24_33 
REMARK   19  A    between atoms: C20_29  and  N6_40 
REMARK   20  A    between atoms: C21_30  and  C22_31 
REMARK   21  A    between atoms: C22_31  and  C23_32 
REMARK   22  A    between atoms: C23_32  and  O8_43 
REMARK   23  A    between atoms: C24_33  and  C25_34 
REMARK   24  A    between atoms: C28_38  and  O6_39 
REMARK   25  A    between atoms: C29_42  and  O8_43 
REMARK   26  A    between atoms: C29_42  and  C35_49 
ROOT
ATOM      1  C14 non d ame     -12.199  14.345  70.573  0.00  0.00     0.089 C 
ATOM      2  H20 non d ame     -13.278  14.459  70.467  0.00  0.00     0.087 H 
ENDROOT
BRANCH   1   3
ATOM      3  N4  non d ame     -11.872  12.960  70.266  0.00  0.00    -0.346 N 
ATOM      4  C10 non d ame     -12.566  11.835  70.991  0.00  0.00     0.241 C 
ATOM      5  O4  non d ame     -13.383  12.068  71.820  0.00  0.00    -0.271 OA
ATOM      6  H19 non d ame     -11.172  12.783  69.559  0.00  0.00     0.163 HD
BRANCH   4   7
ATOM      7  C9  non d ame     -12.220  10.408  70.657  0.00  0.00     0.092 C 
ATOM      8  H11 non d ame     -12.760  10.108  69.759  0.00  0.00     0.088 H 
BRANCH   7   9
ATOM      9  N3  non d ame     -10.789  10.311  70.352  0.00  0.00    -0.346 N 
ATOM     10  C7  non d ame     -10.356   9.802  69.074  0.00  0.00     0.240 C 
ATOM     11  O3  non d ame     -11.147   9.465  68.279  0.00  0.00    -0.271 OA
ATOM     12  H10 non d ame     -10.096  10.596  71.029  0.00  0.00     0.163 HD
BRANCH  10  13
ATOM     13  C6  non d ame      -8.832   9.698  68.758  0.00  0.00     0.086 C 
ATOM     14  H6  non d ame      -8.334   8.917  69.332  0.00  0.00     0.086 H 
BRANCH  13  15
ATOM     15  N2  non d ame      -8.665   9.354  67.356  0.00  0.00    -0.343 N 
ATOM     16  C5  non d ame      -8.261   7.994  66.990  0.00  0.00     0.273 C 
ATOM     17  O2  non d ame      -8.072   7.186  67.832  0.00  0.00    -0.266 OA
ATOM     18  H5  non d ame      -8.827  10.051  66.643  0.00  0.00     0.163 HD
BRANCH  16  19
ATOM     19  C4  non d ame      -8.083   7.616  65.512  0.00  0.00     0.154 A 
ATOM     20  C1  non d ame      -8.201   6.312  64.933  0.00  0.00    -0.017 A 
ATOM     21  C2  non d ame      -7.946   6.501  63.556  0.00  0.00     0.077 A 
ATOM     22  H1  non d ame      -8.435   5.373  65.435  0.00  0.00     0.091 H 
ATOM     23  O1  non d ame      -7.712   7.768  63.376  0.00  0.00    -0.218 OA
ATOM     24  N1  non d ame      -7.786   8.439  64.503  0.00  0.00    -0.123 NA
BRANCH  21  25
ATOM     25  C3  non d ame      -7.948   5.421  62.483  0.00  0.00    -0.029 C 
ATOM     26  H2  non d ame      -7.163   4.695  62.695  0.00  0.00     0.036 H 
ATOM     27  H3  non d ame      -8.915   4.918  62.476  0.00  0.00     0.036 H 
ATOM     28  H4  non d ame      -7.769   5.876  61.508  0.00  0.00     0.036 H 
ENDBRANCH  21  25
ENDBRANCH  16  19
ENDBRANCH  13  15
BRANCH  13  29
ATOM     29  C8  non d ame      -8.164  11.018  69.048  0.00  0.00    -0.049 C 
ATOM     30  H7  non d ame      -8.384  11.722  68.246  0.00  0.00     0.030 H 
ATOM     31  H8  non d ame      -8.539  11.415  69.993  0.00  0.00     0.030 H 
ATOM     32  H9  non d ame      -7.087  10.872  69.117  0.00  0.00     0.030 H 
ENDBRANCH  13  29
ENDBRANCH  10  13
ENDBRANCH   7   9
BRANCH   7  33
ATOM     33  C11 non d ame     -12.552   9.494  71.873  0.00  0.00    -0.033 C 
ATOM     34  H12 non d ame     -12.664  10.138  72.746  0.00  0.00     0.042 H 
BRANCH  33  35
ATOM     35  C12 non d ame     -13.905   8.744  71.668  0.00  0.00    -0.071 C 
ATOM     36  H13 non d ame     -14.731   9.442  71.805  0.00  0.00     0.028 H 
ATOM     37  H14 non d ame     -13.942   8.332  70.660  0.00  0.00     0.028 H 
ATOM     38  H15 non d ame     -13.986   7.936  72.394  0.00  0.00     0.028 H 
ENDBRANCH  33  35
BRANCH  33  39
ATOM     39  C13 non d ame     -11.387   8.493  72.155  0.00  0.00    -0.071 C 
ATOM     40  H16 non d ame     -11.768   7.640  72.716  0.00  0.00     0.028 H 
ATOM     41  H17 non d ame     -10.966   8.149  71.210  0.00  0.00     0.028 H 
ATOM     42  H18 non d ame     -10.613   8.993  72.737  0.00  0.00     0.028 H 
ENDBRANCH  33  39
ENDBRANCH   7  33
ENDBRANCH   4   7
ENDBRANCH   1   3
BRANCH   1  43
ATOM     43  C15 non d ame     -11.412  15.267  69.600  0.00  0.00     0.240 C 
ATOM     44  O5  non d ame     -11.952  16.204  69.105  0.00  0.00    -0.271 OA
ATOM     45  N6  non d ame      -9.981  14.989  69.290  0.00  0.00    -0.355 N 
ATOM     46  H46 non d ame      -9.509  14.199  69.706  0.00  0.00     0.162 HD
BRANCH  45  47
ATOM     47  C20 non d ame      -9.245  15.877  68.363  0.00  0.00     0.013 C 
ATOM     48  H30 non d ame      -9.949  16.614  67.976  0.00  0.00     0.072 H 
BRANCH  47  49
ATOM     49  C21 non d ame      -8.681  15.055  67.226  0.00  0.00    -0.038 C 
ATOM     50  H31 non d ame      -7.599  15.074  67.358  0.00  0.00     0.036 H 
ATOM     51  H32 non d ame      -9.218  14.106  67.254  0.00  0.00     0.036 H 
BRANCH  49  52
ATOM     52  C22 non d ame      -8.963  15.675  65.840  0.00  0.00     0.018 C 
ATOM     53  H33 non d ame      -8.263  16.505  65.739  0.00  0.00     0.048 H 
ATOM     54  H34 non d ame      -8.932  14.846  65.134  0.00  0.00     0.048 H 
BRANCH  52  55
ATOM     55  C23 non d ame     -10.382  16.297  65.711  0.00  0.00     0.259 C 
ATOM     56  O7  non d ame     -10.606  17.381  66.141  0.00  0.00    -0.265 OA
BRANCH  55  57
ATOM     57  O8  non d ame     -11.416  15.549  65.084  0.00  0.00    -0.317 OA
BRANCH  57  58
ATOM     58  C29 non d ame     -11.884  14.439  65.856  0.00  0.00     0.052 C 
ATOM     59  H47 non d ame     -11.397  14.528  66.826  0.00  0.00     0.082 H 
ATOM     60  H48 non d ame     -12.972  14.470  65.787  0.00  0.00     0.082 H 
BRANCH  58  61
ATOM     61  C35 non d ame     -11.387  13.137  65.174  0.00  0.00    -0.034 A 
ATOM     62  C30 non d ame     -10.636  12.216  65.896  0.00  0.00    -0.075 A 
ATOM     63  C31 non d ame     -10.189  11.046  65.284  0.00  0.00    -0.082 A 
ATOM     64  H49 non d ame     -10.398  12.409  66.941  0.00  0.00     0.084 H 
ATOM     65  C32 non d ame     -10.494  10.801  63.942  0.00  0.00    -0.083 A 
ATOM     66  H50 non d ame      -9.602  10.325  65.853  0.00  0.00     0.083 H 
ATOM     67  C33 non d ame     -11.240  11.725  63.223  0.00  0.00    -0.082 A 
ATOM     68  H51 non d ame     -10.148   9.889  63.455  0.00  0.00     0.083 H 
ATOM     69  C34 non d ame     -11.691  12.894  63.833  0.00  0.00    -0.075 A 
ATOM     70  H52 non d ame     -11.474  11.532  62.176  0.00  0.00     0.083 H 
ATOM     71  H53 non d ame     -12.279  13.615  63.262  0.00  0.00     0.084 H 
ENDBRANCH  58  61
ENDBRANCH  57  58
ENDBRANCH  55  57
ENDBRANCH  52  55
ENDBRANCH  49  52
ENDBRANCH  47  49
BRANCH  47  72
ATOM     72  C24 non d ame      -8.106  16.569  69.107  0.00  0.00    -0.039 C 
ATOM     73  H35 non d ame      -8.583  17.138  69.904  0.00  0.00     0.036 H 
ATOM     74  H36 non d ame      -7.396  15.779  69.351  0.00  0.00     0.036 H 
BRANCH  72  75
ATOM     75  C25 non d ame      -7.340  17.620  68.170  0.00  0.00    -0.001 C 
ATOM     76  C26 non d ame      -5.876  17.989  68.823  0.00  0.00    -0.035 C 
ATOM     77  C27 non d ame      -5.755  19.336  68.890  0.00  0.00     0.085 C 
ATOM     78  H38 non d ame      -5.844  17.678  69.867  0.00  0.00     0.036 H 
ATOM     79  H39 non d ame      -5.077  17.694  68.141  0.00  0.00     0.036 H 
ATOM     80  N5  non d ame      -7.128  19.915  68.648  0.00  0.00    -0.049 N 
ATOM     81  H40 non d ame      -5.455  19.551  69.916  0.00  0.00     0.075 H 
ATOM     82  H41 non d ame      -5.103  19.611  68.062  0.00  0.00     0.075 H 
ATOM     83  C28 non d ame      -8.017  18.712  68.041  0.00  0.00     0.193 C 
ATOM     84  H42 non d ame      -7.498  20.163  69.554  0.00  0.00     0.280 HD
ATOM     85  H43 non d ame      -7.018  20.624  67.937  0.00  0.00     0.280 HD
ATOM     86  H44 non d ame      -8.249  18.677  66.976  0.00  0.00     0.129 H 
ATOM     87  H37 non d ame      -7.355  17.325  67.121  0.00  0.00     0.046 H 
BRANCH  83  88
ATOM     88  O6  non d ame      -9.278  18.646  68.709  0.00  0.00    -0.369 OA
ATOM     89  H45 non d ame      -9.139  18.444  69.636  0.00  0.00     0.212 HD
ENDBRANCH  83  88
ENDBRANCH  72  75
ENDBRANCH  47  72
ENDBRANCH  45  47
ENDBRANCH   1  43
BRANCH   1  90
ATOM     90  C16 non d ame     -11.789  14.646  72.007  0.00  0.00    -0.035 C 
ATOM     91  H21 non d ame     -11.909  13.705  72.544  0.00  0.00     0.037 H 
ATOM     92  H22 non d ame     -10.807  15.110  71.934  0.00  0.00     0.037 H 
BRANCH  90  93
ATOM     93  C17 non d ame     -12.716  15.681  72.719  0.00  0.00    -0.059 C 
ATOM     94  H23 non d ame     -12.392  16.677  72.419  0.00  0.00     0.038 H 
BRANCH  93  95
ATOM     95  C18 non d ame     -14.212  15.520  72.300  0.00  0.00    -0.073 C 
ATOM     96  H24 non d ame     -14.332  14.601  71.726  0.00  0.00     0.028 H 
ATOM     97  H25 non d ame     -14.837  15.474  73.192  0.00  0.00     0.028 H 
ATOM     98  H26 non d ame     -14.513  16.372  71.691  0.00  0.00     0.028 H 
ENDBRANCH  93  95
BRANCH  93  99
ATOM     99  C19 non d ame     -12.564  15.594  74.241  0.00  0.00    -0.073 C 
ATOM    100  H27 non d ame     -11.941  16.417  74.590  0.00  0.00     0.028 H 
ATOM    101  H28 non d ame     -13.547  15.657  74.708  0.00  0.00     0.028 H 
ATOM    102  H29 non d ame     -12.096  14.646  74.505  0.00  0.00     0.028 H 
ENDBRANCH  93  99
ENDBRANCH  90  93
ENDBRANCH   1  90
TORSDOF 26
ENDMDL
MODEL 12
REMARK VINA RESULT:      -6.5      2.557      5.812
REMARK  26 active torsions:
REMARK  status: ('A' for Active; 'I' for Inactive)
REMARK    1  A    between atoms: C2_2  and  C3_3 
REMARK    2  A    between atoms: C4_6  and  C5_7 
REMARK       I    between atoms: C5_7  and  N2_9 
REMARK    3  A    between atoms: N2_9  and  C6_10 
REMARK    4  A    between atoms: C6_10  and  C7_11 
REMARK    5  A    between atoms: C6_10  and  C8_13 
REMARK       I    between atoms: C7_11  and  N3_14 
REMARK    6  A    between atoms: N3_14  and  C9_15 
REMARK    7  A    between atoms: C9_15  and  C10_16 
REMARK    8  A    between atoms: C9_15  and  C11_18 
REMARK       I    between atoms: C10_16  and  N4_21 
REMARK    9  A    between atoms: C11_18  and  C12_19 
REMARK   10  A    between atoms: C11_18  and  C13_20 
REMARK   11  A    between atoms: N4_21  and  C14_22 
REMARK   12  A    between atoms: C14_22  and  C15_23 
REMARK   13  A    between atoms: C14_22  and  C16_25 
REMARK       I    between atoms: C15_23  and  N6_40 
REMARK   14  A    between atoms: C16_25  and  C17_26 
REMARK   15  A    between atoms: C17_26  and  C18_27 
REMARK   16  A    between atoms: C17_26  and  C19_28 
REMARK   17  A    between atoms: C20_29  and  C21_30 
REMARK   18  A    between atoms: C20_29  and  C24_33 
REMARK   19  A    between atoms: C20_29  and  N6_40 
REMARK   20  A    between atoms: C21_30  and  C22_31 
REMARK   21  A    between atoms: C22_31  and  C23_32 
REMARK   22  A    between atoms: C23_32  and  O8_43 
REMARK   23  A    between atoms: C24_33  and  C25_34 
REMARK   24  A    between atoms: C28_38  and  O6_39 
REMARK   25  A    between atoms: C29_42  and  O8_43 
REMARK   26  A    between atoms: C29_42  and  C35_49 
ROOT
ATOM      1  C14 non d ame      -9.842  11.137  67.976  0.00  0.00     0.089 C 
ATOM      2  H20 non d ame      -9.563  11.043  66.926  0.00  0.00     0.087 H 
ENDROOT
BRANCH   1   3
ATOM      3  N4  non d ame      -8.681  11.641  68.694  0.00  0.00    -0.346 N 
ATOM      4  C10 non d ame      -7.335  11.707  68.017  0.00  0.00     0.241 C 
ATOM      5  O4  non d ame      -7.211  11.345  66.893  0.00  0.00    -0.271 OA
ATOM      6  H19 non d ame      -8.808  11.941  69.651  0.00  0.00     0.163 HD
BRANCH   4   7
ATOM      7  C9  non d ame      -6.146  12.236  68.774  0.00  0.00     0.092 C 
ATOM      8  H11 non d ame      -5.239  12.038  68.202  0.00  0.00     0.088 H 
BRANCH   7   9
ATOM      9  N3  non d ame      -6.262  13.691  68.911  0.00  0.00    -0.346 N 
ATOM     10  C7  non d ame      -5.314  14.556  68.252  0.00  0.00     0.240 C 
ATOM     11  O3  non d ame      -4.451  14.097  67.608  0.00  0.00    -0.271 OA
ATOM     12  H10 non d ame      -7.000  14.101  69.465  0.00  0.00     0.163 HD
BRANCH  10  13
ATOM     13  C6  non d ame      -5.441  16.103  68.405  0.00  0.00     0.086 C 
ATOM     14  H6  non d ame      -4.513  16.572  68.731  0.00  0.00     0.086 H 
BRANCH  13  15
ATOM     15  N2  non d ame      -5.767  16.679  67.111  0.00  0.00    -0.343 N 
ATOM     16  C5  non d ame      -4.951  17.775  66.584  0.00  0.00     0.273 C 
ATOM     17  O2  non d ame      -4.037  18.188  67.210  0.00  0.00    -0.266 OA
ATOM     18  H5  non d ame      -6.551  16.322  66.584  0.00  0.00     0.163 HD
BRANCH  16  19
ATOM     19  C4  non d ame      -5.283  18.393  65.216  0.00  0.00     0.154 A 
ATOM     20  C1  non d ame      -4.458  18.396  64.047  0.00  0.00    -0.017 A 
ATOM     21  C2  non d ame      -5.214  19.083  63.071  0.00  0.00     0.077 A 
ATOM     22  H1  non d ame      -3.463  17.967  63.925  0.00  0.00     0.091 H 
ATOM     23  O1  non d ame      -6.340  19.427  63.624  0.00  0.00    -0.218 OA
ATOM     24  N1  non d ame      -6.403  19.036  64.877  0.00  0.00    -0.123 NA
BRANCH  21  25
ATOM     25  C3  non d ame      -4.789  19.364  61.636  0.00  0.00    -0.029 C 
ATOM     26  H2  non d ame      -5.648  19.251  60.973  0.00  0.00     0.036 H 
ATOM     27  H3  non d ame      -4.407  20.382  61.563  0.00  0.00     0.036 H 
ATOM     28  H4  non d ame      -4.009  18.662  61.342  0.00  0.00     0.036 H 
ENDBRANCH  21  25
ENDBRANCH  16  19
ENDBRANCH  13  15
BRANCH  13  29
ATOM     29  C8  non d ame      -6.525  16.426  69.401  0.00  0.00    -0.049 C 
ATOM     30  H7  non d ame      -6.586  17.506  69.536  0.00  0.00     0.030 H 
ATOM     31  H8  non d ame      -7.481  16.052  69.031  0.00  0.00     0.030 H 
ATOM     32  H9  non d ame      -6.295  15.954  70.355  0.00  0.00     0.030 H 
ENDBRANCH  13  29
ENDBRANCH  10  13
ENDBRANCH   7   9
BRANCH   7  33
ATOM     33  C11 non d ame      -6.099  11.586  70.188  0.00  0.00    -0.033 C 
ATOM     34  H12 non d ame      -7.083  11.710  70.639  0.00  0.00     0.042 H 
BRANCH  33  35
ATOM     35  C12 non d ame      -5.813  10.054  70.100  0.00  0.00    -0.071 C 
ATOM     36  H13 non d ame      -4.738   9.890  70.023  0.00  0.00     0.028 H 
ATOM     37  H14 non d ame      -6.192   9.562  70.995  0.00  0.00     0.028 H 
ATOM     38  H15 non d ame      -6.309   9.643  69.222  0.00  0.00     0.028 H 
ENDBRANCH  33  35
BRANCH  33  39
ATOM     39  C13 non d ame      -5.054  12.306  71.100  0.00  0.00    -0.071 C 
ATOM     40  H16 non d ame      -4.884  11.712  71.997  0.00  0.00     0.028 H 
ATOM     41  H17 non d ame      -4.116  12.422  70.557  0.00  0.00     0.028 H 
ATOM     42  H18 non d ame      -5.435  13.288  71.381  0.00  0.00     0.028 H 
ENDBRANCH  33  39
ENDBRANCH   7  33
ENDBRANCH   4   7
ENDBRANCH   1   3
BRANCH   1  43
ATOM     43  C15 non d ame     -11.022  12.128  68.184  0.00  0.00     0.240 C 
ATOM     44  O5  non d ame     -12.023  11.998  67.554  0.00  0.00    -0.271 OA
ATOM     45  N6  non d ame     -10.910  13.236  69.175  0.00  0.00    -0.355 N 
ATOM     46  H46 non d ame     -10.068  13.355  69.719  0.00  0.00     0.162 HD
BRANCH  45  47
ATOM     47  C20 non d ame     -12.042  14.169  69.363  0.00  0.00     0.013 C 
ATOM     48  H30 non d ame     -12.833  13.880  68.671  0.00  0.00     0.072 H 
BRANCH  47  49
ATOM     49  C21 non d ame     -11.584  15.579  69.062  0.00  0.00    -0.038 C 
ATOM     50  H31 non d ame     -11.971  15.809  68.069  0.00  0.00     0.036 H 
ATOM     51  H32 non d ame     -11.891  16.177  69.921  0.00  0.00     0.036 H 
BRANCH  49  52
ATOM     52  C22 non d ame     -10.047  15.703  68.972  0.00  0.00     0.018 C 
ATOM     53  H33 non d ame      -9.791  16.606  69.528  0.00  0.00     0.048 H 
ATOM     54  H34 non d ame      -9.654  14.737  69.290  0.00  0.00     0.048 H 
BRANCH  52  55
ATOM     55  C23 non d ame      -9.521  15.927  67.527  0.00  0.00     0.259 C 
ATOM     56  O7  non d ame      -9.072  16.979  67.206  0.00  0.00    -0.265 OA
BRANCH  55  57
ATOM     57  O8  non d ame      -9.596  14.864  66.585  0.00  0.00    -0.317 OA
BRANCH  57  58
ATOM     58  C29 non d ame     -10.467  15.123  65.481  0.00  0.00     0.052 C 
ATOM     59  H47 non d ame     -11.392  15.500  65.916  0.00  0.00     0.082 H 
ATOM     60  H48 non d ame      -9.895  15.746  64.794  0.00  0.00     0.082 H 
BRANCH  58  61
ATOM     61  C35 non d ame     -10.769  13.771  64.782  0.00  0.00    -0.034 A 
ATOM     62  C30 non d ame      -9.809  12.764  64.769  0.00  0.00    -0.075 A 
ATOM     63  C31 non d ame     -10.080  11.550  64.140  0.00  0.00    -0.082 A 
ATOM     64  H49 non d ame      -8.846  12.927  65.250  0.00  0.00     0.084 H 
ATOM     65  C32 non d ame     -11.316  11.344  63.521  0.00  0.00    -0.083 A 
ATOM     66  H50 non d ame      -9.326  10.762  64.133  0.00  0.00     0.083 H 
ATOM     67  C33 non d ame     -12.270  12.353  63.534  0.00  0.00    -0.082 A 
ATOM     68  H51 non d ame     -11.536  10.398  63.028  0.00  0.00     0.083 H 
ATOM     69  C34 non d ame     -12.004  13.568  64.163  0.00  0.00    -0.075 A 
ATOM     70  H52 non d ame     -13.232  12.191  63.048  0.00  0.00     0.083 H 
ATOM     71  H53 non d ame     -12.759  14.355  64.170  0.00  0.00     0.084 H 
ENDBRANCH  58  61
ENDBRANCH  57  58
ENDBRANCH  55  57
ENDBRANCH  52  55
ENDBRANCH  49  52
ENDBRANCH  47  49
BRANCH  47  72
ATOM     72  C24 non d ame     -12.542  14.092  70.803  0.00  0.00    -0.039 C 
ATOM     73  H35 non d ame     -13.469  13.521  70.759  0.00  0.00     0.036 H 
ATOM     74  H36 non d ame     -11.699  13.717  71.384  0.00  0.00     0.036 H 
BRANCH  72  75
ATOM     75  C25 non d ame     -12.907  15.540  71.382  0.00  0.00    -0.001 C 
ATOM     76  C26 non d ame     -11.798  15.989  72.511  0.00  0.00    -0.035 C 
ATOM     77  C27 non d ame     -12.449  16.372  73.635  0.00  0.00     0.085 C 
ATOM     78  H38 non d ame     -11.222  15.122  72.833  0.00  0.00     0.036 H 
ATOM     79  H39 non d ame     -11.284  16.896  72.191  0.00  0.00     0.036 H 
ATOM     80  N5  non d ame     -13.882  15.919  73.492  0.00  0.00    -0.049 N 
ATOM     81  H40 non d ame     -11.980  15.818  74.448  0.00  0.00     0.075 H 
ATOM     82  H41 non d ame     -12.420  17.462  73.630  0.00  0.00     0.075 H 
ATOM     83  C28 non d ame     -14.075  15.542  71.933  0.00  0.00     0.193 C 
ATOM     84  H42 non d ame     -13.971  15.075  74.040  0.00  0.00     0.280 HD
ATOM     85  H43 non d ame     -14.458  16.721  73.702  0.00  0.00     0.280 HD
ATOM     86  H44 non d ame     -14.610  16.216  71.263  0.00  0.00     0.129 H 
ATOM     87  H37 non d ame     -13.128  16.257  70.592  0.00  0.00     0.046 H 
BRANCH  83  88
ATOM     88  O6  non d ame     -14.732  14.280  71.810  0.00  0.00    -0.369 OA
ATOM     89  H45 non d ame     -14.665  13.971  70.904  0.00  0.00     0.212 HD
ENDBRANCH  83  88
ENDBRANCH  72  75
ENDBRANCH  47  72
ENDBRANCH  45  47
ENDBRANCH   1  43
BRANCH   1  90
ATOM     90  C16 non d ame     -10.216   9.772  68.532  0.00  0.00    -0.035 C 
ATOM     91  H21 non d ame     -11.274   9.646  68.299  0.00  0.00     0.037 H 
ATOM     92  H22 non d ame      -9.482   9.081  68.119  0.00  0.00     0.037 H 
BRANCH  90  93
ATOM     93  C17 non d ame     -10.093   9.673  70.085  0.00  0.00    -0.059 C 
ATOM     94  H23 non d ame      -9.574  10.567  70.433  0.00  0.00     0.038 H 
BRANCH  93  95
ATOM     95  C18 non d ame     -11.487   9.627  70.787  0.00  0.00    -0.073 C 
ATOM     96  H24 non d ame     -12.254   9.975  70.095  0.00  0.00     0.028 H 
ATOM     97  H25 non d ame     -11.709   8.603  71.088  0.00  0.00     0.028 H 
ATOM     98  H26 non d ame     -11.473  10.269  71.667  0.00  0.00     0.028 H 
ENDBRANCH  93  95
BRANCH  93  99
ATOM     99  C19 non d ame      -9.239   8.468  70.490  0.00  0.00    -0.073 C 
ATOM    100  H27 non d ame      -8.459   8.310  69.745  0.00  0.00     0.028 H 
ATOM    101  H28 non d ame      -8.781   8.657  71.461  0.00  0.00     0.028 H 
ATOM    102  H29 non d ame      -9.868   7.581  70.551  0.00  0.00     0.028 H 
ENDBRANCH  93  99
ENDBRANCH  90  93
ENDBRANCH   1  90
TORSDOF 26
ENDMDL
MODEL 13
REMARK VINA RESULT:      -6.4      3.259      7.978
REMARK  26 active torsions:
REMARK  status: ('A' for Active; 'I' for Inactive)
REMARK    1  A    between atoms: C2_2  and  C3_3 
REMARK    2  A    between atoms: C4_6  and  C5_7 
REMARK       I    between atoms: C5_7  and  N2_9 
REMARK    3  A    between atoms: N2_9  and  C6_10 
REMARK    4  A    between atoms: C6_10  and  C7_11 
REMARK    5  A    between atoms: C6_10  and  C8_13 
REMARK       I    between atoms: C7_11  and  N3_14 
REMARK    6  A    between atoms: N3_14  and  C9_15 
REMARK    7  A    between atoms: C9_15  and  C10_16 
REMARK    8  A    between atoms: C9_15  and  C11_18 
REMARK       I    between atoms: C10_16  and  N4_21 
REMARK    9  A    between atoms: C11_18  and  C12_19 
REMARK   10  A    between atoms: C11_18  and  C13_20 
REMARK   11  A    between atoms: N4_21  and  C14_22 
REMARK   12  A    between atoms: C14_22  and  C15_23 
REMARK   13  A    between atoms: C14_22  and  C16_25 
REMARK       I    between atoms: C15_23  and  N6_40 
REMARK   14  A    between atoms: C16_25  and  C17_26 
REMARK   15  A    between atoms: C17_26  and  C18_27 
REMARK   16  A    between atoms: C17_26  and  C19_28 
REMARK   17  A    between atoms: C20_29  and  C21_30 
REMARK   18  A    between atoms: C20_29  and  C24_33 
REMARK   19  A    between atoms: C20_29  and  N6_40 
REMARK   20  A    between atoms: C21_30  and  C22_31 
REMARK   21  A    between atoms: C22_31  and  C23_32 
REMARK   22  A    between atoms: C23_32  and  O8_43 
REMARK   23  A    between atoms: C24_33  and  C25_34 
REMARK   24  A    between atoms: C28_38  and  O6_39 
REMARK   25  A    between atoms: C29_42  and  O8_43 
REMARK   26  A    between atoms: C29_42  and  C35_49 
ROOT
ATOM      1  C14 non d ame     -11.982  11.359  68.893  0.00  0.00     0.089 C 
ATOM      2  H20 non d ame     -13.064  11.247  68.959  0.00  0.00     0.087 H 
ENDROOT
BRANCH   1   3
ATOM      3  N4  non d ame     -11.632  12.622  69.524  0.00  0.00    -0.346 N 
ATOM      4  C10 non d ame     -12.370  13.089  70.754  0.00  0.00     0.241 C 
ATOM      5  O4  non d ame     -13.244  12.431  71.216  0.00  0.00    -0.271 OA
ATOM      6  H19 non d ame     -10.887  13.169  69.114  0.00  0.00     0.163 HD
BRANCH   4   7
ATOM      7  C9  non d ame     -11.992  14.397  71.398  0.00  0.00     0.092 C 
ATOM      8  H11 non d ame     -10.973  14.328  71.778  0.00  0.00     0.088 H 
BRANCH   7   9
ATOM      9  N3  non d ame     -12.005  15.461  70.389  0.00  0.00    -0.346 N 
ATOM     10  C7  non d ame     -10.789  15.821  69.704  0.00  0.00     0.240 C 
ATOM     11  O3  non d ame      -9.788  15.267  69.954  0.00  0.00    -0.271 OA
ATOM     12  H10 non d ame     -12.860  15.949  70.165  0.00  0.00     0.163 HD
BRANCH  10  13
ATOM     13  C6  non d ame     -10.809  16.956  68.634  0.00  0.00     0.086 C 
ATOM     14  H6  non d ame     -11.611  17.677  68.798  0.00  0.00     0.086 H 
BRANCH  13  15
ATOM     15  N2  non d ame      -9.562  17.698  68.711  0.00  0.00    -0.343 N 
ATOM     16  C5  non d ame      -9.449  18.990  68.030  0.00  0.00     0.273 C 
ATOM     17  O2  non d ame     -10.365  19.422  67.421  0.00  0.00    -0.266 OA
ATOM     18  H5  non d ame      -8.783  17.322  69.231  0.00  0.00     0.163 HD
BRANCH  16  19
ATOM     19  C4  non d ame      -8.136  19.787  68.104  0.00  0.00     0.154 A 
ATOM     20  C1  non d ame      -7.048  19.578  69.010  0.00  0.00    -0.017 A 
ATOM     21  C2  non d ame      -6.096  20.564  68.668  0.00  0.00     0.077 A 
ATOM     22  H1  non d ame      -6.962  18.826  69.795  0.00  0.00     0.091 H 
ATOM     23  O1  non d ame      -6.588  21.252  67.679  0.00  0.00    -0.218 OA
ATOM     24  N1  non d ame      -7.779  20.818  67.333  0.00  0.00    -0.123 NA
BRANCH  21  25
ATOM     25  C3  non d ame      -4.743  20.779  69.332  0.00  0.00    -0.029 C 
ATOM     26  H2  non d ame      -3.995  20.150  68.848  0.00  0.00     0.036 H 
ATOM     27  H3  non d ame      -4.454  21.825  69.236  0.00  0.00     0.036 H 
ATOM     28  H4  non d ame      -4.810  20.516  70.388  0.00  0.00     0.036 H 
ENDBRANCH  21  25
ENDBRANCH  16  19
ENDBRANCH  13  15
BRANCH  13  29
ATOM     29  C8  non d ame     -10.968  16.355  67.261  0.00  0.00    -0.049 C 
ATOM     30  H7  non d ame     -12.014  16.095  67.096  0.00  0.00     0.030 H 
ATOM     31  H8  non d ame     -10.650  17.078  66.509  0.00  0.00     0.030 H 
ATOM     32  H9  non d ame     -10.355  15.458  67.185  0.00  0.00     0.030 H 
ENDBRANCH  13  29
ENDBRANCH  10  13
ENDBRANCH   7   9
BRANCH   7  33
ATOM     33  C11 non d ame     -13.014  14.738  72.521  0.00  0.00    -0.033 C 
ATOM     34  H12 non d ame     -13.384  13.795  72.926  0.00  0.00     0.042 H 
BRANCH  33  35
ATOM     35  C12 non d ame     -12.335  15.516  73.691  0.00  0.00    -0.071 C 
ATOM     36  H13 non d ame     -11.789  14.817  74.323  0.00  0.00     0.028 H 
ATOM     37  H14 non d ame     -11.644  16.253  73.284  0.00  0.00     0.028 H 
ATOM     38  H15 non d ame     -13.099  16.022  74.281  0.00  0.00     0.028 H 
ENDBRANCH  33  35
BRANCH  33  39
ATOM     39  C13 non d ame     -14.233  15.528  71.947  0.00  0.00    -0.071 C 
ATOM     40  H16 non d ame     -14.373  15.268  70.898  0.00  0.00     0.028 H 
ATOM     41  H17 non d ame     -15.131  15.271  72.509  0.00  0.00     0.028 H 
ATOM     42  H18 non d ame     -14.044  16.598  72.033  0.00  0.00     0.028 H 
ENDBRANCH  33  39
ENDBRANCH   7  33
ENDBRANCH   4   7
ENDBRANCH   1   3
BRANCH   1  43
ATOM     43  C15 non d ame     -11.227  10.213  69.627  0.00  0.00     0.240 C 
ATOM     44  O5  non d ame     -10.046  10.272  69.758  0.00  0.00    -0.271 OA
ATOM     45  N6  non d ame     -11.976   9.047  70.175  0.00  0.00    -0.355 N 
ATOM     46  H46 non d ame     -12.979   8.988  70.073  0.00  0.00     0.162 HD
BRANCH  45  47
ATOM     47  C20 non d ame     -11.243   7.967  70.871  0.00  0.00     0.013 C 
ATOM     48  H30 non d ame     -10.179   8.195  70.817  0.00  0.00     0.072 H 
BRANCH  47  49
ATOM     49  C21 non d ame     -11.524   6.649  70.184  0.00  0.00    -0.038 C 
ATOM     50  H31 non d ame     -11.732   5.938  70.984  0.00  0.00     0.036 H 
ATOM     51  H32 non d ame     -12.285   6.865  69.434  0.00  0.00     0.036 H 
BRANCH  49  52
ATOM     52  C22 non d ame     -10.301   6.100  69.418  0.00  0.00     0.018 C 
ATOM     53  H33 non d ame     -10.612   6.030  68.375  0.00  0.00     0.048 H 
ATOM     54  H34 non d ame      -9.465   6.743  69.696  0.00  0.00     0.048 H 
BRANCH  52  55
ATOM     55  C23 non d ame      -9.894   4.660  69.840  0.00  0.00     0.259 C 
ATOM     56  O7  non d ame     -10.106   4.273  70.943  0.00  0.00    -0.265 OA
BRANCH  55  57
ATOM     57  O8  non d ame      -9.251   3.813  68.896  0.00  0.00    -0.317 OA
BRANCH  57  58
ATOM     58  C29 non d ame      -8.101   4.397  68.277  0.00  0.00     0.052 C 
ATOM     59  H47 non d ame      -7.988   5.381  68.731  0.00  0.00     0.082 H 
ATOM     60  H48 non d ame      -7.306   3.657  68.374  0.00  0.00     0.082 H 
BRANCH  58  61
ATOM     61  C35 non d ame      -8.414   4.585  66.768  0.00  0.00    -0.034 A 
ATOM     62  C30 non d ame      -7.503   5.236  65.944  0.00  0.00    -0.075 A 
ATOM     63  C31 non d ame      -7.783   5.405  64.589  0.00  0.00    -0.082 A 
ATOM     64  H49 non d ame      -6.569   5.615  66.359  0.00  0.00     0.084 H 
ATOM     65  C32 non d ame      -8.982   4.921  64.059  0.00  0.00    -0.083 A 
ATOM     66  H50 non d ame      -7.067   5.915  63.946  0.00  0.00     0.083 H 
ATOM     67  C33 non d ame      -9.890   4.273  64.886  0.00  0.00    -0.082 A 
ATOM     68  H51 non d ame      -9.210   5.048  63.001  0.00  0.00     0.083 H 
ATOM     69  C34 non d ame      -9.612   4.101  66.241  0.00  0.00    -0.075 A 
ATOM     70  H52 non d ame     -10.826   3.899  64.470  0.00  0.00     0.083 H 
ATOM     71  H53 non d ame     -10.331   3.590  66.884  0.00  0.00     0.084 H 
ENDBRANCH  58  61
ENDBRANCH  57  58
ENDBRANCH  55  57
ENDBRANCH  52  55
ENDBRANCH  49  52
ENDBRANCH  47  49
BRANCH  47  72
ATOM     72  C24 non d ame     -11.697   7.890  72.326  0.00  0.00    -0.039 C 
ATOM     73  H35 non d ame     -12.109   8.873  72.554  0.00  0.00     0.036 H 
ATOM     74  H36 non d ame     -12.333   7.007  72.387  0.00  0.00     0.036 H 
BRANCH  72  75
ATOM     75  C25 non d ame     -10.463   7.653  73.320  0.00  0.00    -0.001 C 
ATOM     76  C26 non d ame      -9.046   7.913  72.527  0.00  0.00    -0.035 C 
ATOM     77  C27 non d ame      -8.236   6.845  72.719  0.00  0.00     0.085 C 
ATOM     78  H38 non d ame      -9.216   7.913  71.451  0.00  0.00     0.036 H 
ATOM     79  H39 non d ame      -8.502   8.734  72.994  0.00  0.00     0.036 H 
ATOM     80  N5  non d ame      -9.089   5.742  73.298  0.00  0.00    -0.049 N 
ATOM     81  H40 non d ame      -7.900   6.550  71.725  0.00  0.00     0.075 H 
ATOM     82  H41 non d ame      -7.511   7.161  73.469  0.00  0.00     0.075 H 
ATOM     83  C28 non d ame     -10.460   6.446  73.781  0.00  0.00     0.193 C 
ATOM     84  H42 non d ame      -9.302   5.115  72.534  0.00  0.00     0.280 HD
ATOM     85  H43 non d ame      -8.601   5.398  74.111  0.00  0.00     0.280 HD
ATOM     86  H44 non d ame     -10.641   6.636  74.839  0.00  0.00     0.129 H 
ATOM     87  H37 non d ame     -10.598   8.162  74.274  0.00  0.00     0.046 H 
BRANCH  83  88
ATOM     88  O6  non d ame     -11.586   5.693  73.329  0.00  0.00    -0.369 OA
ATOM     89  H45 non d ame     -11.412   5.355  72.448  0.00  0.00     0.212 HD
ENDBRANCH  83  88
ENDBRANCH  72  75
ENDBRANCH  47  72
ENDBRANCH  45  47
ENDBRANCH   1  43
BRANCH   1  90
ATOM     90  C16 non d ame     -11.556  11.398  67.433  0.00  0.00    -0.035 C 
ATOM     91  H21 non d ame     -10.593  10.888  67.400  0.00  0.00     0.037 H 
ATOM     92  H22 non d ame     -12.402  10.999  66.875  0.00  0.00     0.037 H 
BRANCH  90  93
ATOM     93  C17 non d ame     -11.310  12.842  66.892  0.00  0.00    -0.059 C 
ATOM     94  H23 non d ame     -11.433  13.533  67.725  0.00  0.00     0.038 H 
BRANCH  93  95
ATOM     95  C18 non d ame      -9.863  13.023  66.332  0.00  0.00    -0.073 C 
ATOM     96  H24 non d ame      -9.229  13.467  67.100  0.00  0.00     0.028 H 
ATOM     97  H25 non d ame      -9.460  12.052  66.045  0.00  0.00     0.028 H 
ATOM     98  H26 non d ame      -9.890  13.677  65.460  0.00  0.00     0.028 H 
ENDBRANCH  93  95
BRANCH  93  99
ATOM     99  C19 non d ame     -12.354  13.214  65.835  0.00  0.00    -0.073 C 
ATOM    100  H27 non d ame     -12.983  12.349  65.627  0.00  0.00     0.028 H 
ATOM    101  H28 non d ame     -12.971  14.032  66.207  0.00  0.00     0.028 H 
ATOM    102  H29 non d ame     -11.850  13.525  64.921  0.00  0.00     0.028 H 
ENDBRANCH  93  99
ENDBRANCH  90  93
ENDBRANCH   1  90
TORSDOF 26
ENDMDL
MODEL 14
REMARK VINA RESULT:      -6.4      3.185      8.413
REMARK  26 active torsions:
REMARK  status: ('A' for Active; 'I' for Inactive)
REMARK    1  A    between atoms: C2_2  and  C3_3 
REMARK    2  A    between atoms: C4_6  and  C5_7 
REMARK       I    between atoms: C5_7  and  N2_9 
REMARK    3  A    between atoms: N2_9  and  C6_10 
REMARK    4  A    between atoms: C6_10  and  C7_11 
REMARK    5  A    between atoms: C6_10  and  C8_13 
REMARK       I    between atoms: C7_11  and  N3_14 
REMARK    6  A    between atoms: N3_14  and  C9_15 
REMARK    7  A    between atoms: C9_15  and  C10_16 
REMARK    8  A    between atoms: C9_15  and  C11_18 
REMARK       I    between atoms: C10_16  and  N4_21 
REMARK    9  A    between atoms: C11_18  and  C12_19 
REMARK   10  A    between atoms: C11_18  and  C13_20 
REMARK   11  A    between atoms: N4_21  and  C14_22 
REMARK   12  A    between atoms: C14_22  and  C15_23 
REMARK   13  A    between atoms: C14_22  and  C16_25 
REMARK       I    between atoms: C15_23  and  N6_40 
REMARK   14  A    between atoms: C16_25  and  C17_26 
REMARK   15  A    between atoms: C17_26  and  C18_27 
REMARK   16  A    between atoms: C17_26  and  C19_28 
REMARK   17  A    between atoms: C20_29  and  C21_30 
REMARK   18  A    between atoms: C20_29  and  C24_33 
REMARK   19  A    between atoms: C20_29  and  N6_40 
REMARK   20  A    between atoms: C21_30  and  C22_31 
REMARK   21  A    between atoms: C22_31  and  C23_32 
REMARK   22  A    between atoms: C23_32  and  O8_43 
REMARK   23  A    between atoms: C24_33  and  C25_34 
REMARK   24  A    between atoms: C28_38  and  O6_39 
REMARK   25  A    between atoms: C29_42  and  O8_43 
REMARK   26  A    between atoms: C29_42  and  C35_49 
ROOT
ATOM      1  C14 non d ame      -7.471   9.599  64.875  0.00  0.00     0.089 C 
ATOM      2  H20 non d ame      -8.020   8.778  64.413  0.00  0.00     0.087 H 
ENDROOT
BRANCH   1   3
ATOM      3  N4  non d ame      -8.390  10.718  65.014  0.00  0.00    -0.346 N 
ATOM      4  C10 non d ame      -9.846  10.474  65.322  0.00  0.00     0.241 C 
ATOM      5  O4  non d ame     -10.255   9.367  65.450  0.00  0.00    -0.271 OA
ATOM      6  H19 non d ame      -8.022  11.652  64.899  0.00  0.00     0.163 HD
BRANCH   4   7
ATOM      7  C9  non d ame     -10.783  11.644  65.468  0.00  0.00     0.092 C 
ATOM      8  H11 non d ame     -11.677  11.324  66.002  0.00  0.00     0.088 H 
BRANCH   7   9
ATOM      9  N3  non d ame     -10.144  12.684  66.281  0.00  0.00    -0.346 N 
ATOM     10  C7  non d ame     -10.870  13.302  67.362  0.00  0.00     0.240 C 
ATOM     11  O3  non d ame     -11.971  12.977  67.591  0.00  0.00    -0.271 OA
ATOM     12  H10 non d ame      -9.195  12.976  66.094  0.00  0.00     0.163 HD
BRANCH  10  13
ATOM     13  C6  non d ame     -10.185  14.410  68.221  0.00  0.00     0.086 C 
ATOM     14  H6  non d ame     -10.315  15.408  67.804  0.00  0.00     0.086 H 
BRANCH  13  15
ATOM     15  N2  non d ame     -10.796  14.428  69.540  0.00  0.00    -0.343 N 
ATOM     16  C5  non d ame     -11.728  15.503  69.887  0.00  0.00     0.273 C 
ATOM     17  O2  non d ame     -11.978  16.349  69.101  0.00  0.00    -0.266 OA
ATOM     18  H5  non d ame     -10.577  13.703  70.207  0.00  0.00     0.163 HD
BRANCH  16  19
ATOM     19  C4  non d ame     -12.384  15.534  71.277  0.00  0.00     0.154 A 
ATOM     20  C1  non d ame     -11.743  15.799  72.529  0.00  0.00    -0.017 A 
ATOM     21  C2  non d ame     -12.774  15.709  73.491  0.00  0.00     0.077 A 
ATOM     22  H1  non d ame     -10.692  16.021  72.712  0.00  0.00     0.091 H 
ATOM     23  O1  non d ame     -13.874  15.428  72.855  0.00  0.00    -0.218 OA
ATOM     24  N1  non d ame     -13.671  15.320  71.562  0.00  0.00    -0.123 NA
BRANCH  21  25
ATOM     25  C3  non d ame     -12.625  15.908  74.993  0.00  0.00    -0.029 C 
ATOM     26  H2  non d ame     -12.931  16.921  75.259  0.00  0.00     0.036 H 
ATOM     27  H3  non d ame     -13.254  15.190  75.519  0.00  0.00     0.036 H 
ATOM     28  H4  non d ame     -11.584  15.756  75.279  0.00  0.00     0.036 H 
ENDBRANCH  21  25
ENDBRANCH  16  19
ENDBRANCH  13  15
BRANCH  13  29
ATOM     29  C8  non d ame      -8.711  14.119  68.340  0.00  0.00    -0.049 C 
ATOM     30  H7  non d ame      -8.171  14.646  67.553  0.00  0.00     0.030 H 
ATOM     31  H8  non d ame      -8.352  14.454  69.314  0.00  0.00     0.030 H 
ATOM     32  H9  non d ame      -8.543  13.047  68.240  0.00  0.00     0.030 H 
ENDBRANCH  13  29
ENDBRANCH  10  13
ENDBRANCH   7   9
BRANCH   7  33
ATOM     33  C11 non d ame     -11.116  12.221  64.061  0.00  0.00    -0.033 C 
ATOM     34  H12 non d ame     -10.392  11.810  63.357  0.00  0.00     0.042 H 
BRANCH  33  35
ATOM     35  C12 non d ame     -12.535  11.778  63.586  0.00  0.00    -0.071 C 
ATOM     36  H13 non d ame     -12.848  12.400  62.748  0.00  0.00     0.028 H 
ATOM     37  H14 non d ame     -12.505  10.735  63.273  0.00  0.00     0.028 H 
ATOM     38  H15 non d ame     -13.243  11.890  64.407  0.00  0.00     0.028 H 
ENDBRANCH  33  35
BRANCH  33  39
ATOM     39  C13 non d ame     -10.974  13.777  64.047  0.00  0.00    -0.071 C 
ATOM     40  H16 non d ame     -11.351  14.168  63.102  0.00  0.00     0.028 H 
ATOM     41  H17 non d ame     -11.546  14.202  64.871  0.00  0.00     0.028 H 
ATOM     42  H18 non d ame      -9.924  14.046  64.157  0.00  0.00     0.028 H 
ENDBRANCH  33  39
ENDBRANCH   7  33
ENDBRANCH   4   7
ENDBRANCH   1   3
BRANCH   1  43
ATOM     43  C15 non d ame      -6.930   9.224  66.285  0.00  0.00     0.240 C 
ATOM     44  O5  non d ame      -5.775   9.363  66.532  0.00  0.00    -0.271 OA
ATOM     45  N6  non d ame      -7.853   8.699  67.331  0.00  0.00    -0.355 N 
ATOM     46  H46 non d ame      -8.837   8.581  67.135  0.00  0.00     0.162 HD
BRANCH  45  47
ATOM     47  C20 non d ame      -7.324   8.349  68.667  0.00  0.00     0.013 C 
ATOM     48  H30 non d ame      -6.326   8.778  68.755  0.00  0.00     0.072 H 
BRANCH  47  49
ATOM     49  C21 non d ame      -7.253   6.844  68.798  0.00  0.00    -0.038 C 
ATOM     50  H31 non d ame      -6.190   6.600  68.824  0.00  0.00     0.036 H 
ATOM     51  H32 non d ame      -7.892   6.592  69.645  0.00  0.00     0.036 H 
BRANCH  49  52
ATOM     52  C22 non d ame      -7.840   6.107  67.574  0.00  0.00     0.018 C 
ATOM     53  H33 non d ame      -8.442   5.294  67.980  0.00  0.00     0.048 H 
ATOM     54  H34 non d ame      -8.307   6.879  66.962  0.00  0.00     0.048 H 
BRANCH  52  55
ATOM     55  C23 non d ame      -6.766   5.436  66.674  0.00  0.00     0.259 C 
ATOM     56  O7  non d ame      -5.660   5.274  67.075  0.00  0.00    -0.265 OA
BRANCH  55  57
ATOM     57  O8  non d ame      -7.115   5.029  65.357  0.00  0.00    -0.317 OA
BRANCH  57  58
ATOM     58  C29 non d ame      -8.090   5.866  64.727  0.00  0.00     0.052 C 
ATOM     59  H47 non d ame      -8.812   6.115  65.503  0.00  0.00     0.082 H 
ATOM     60  H48 non d ame      -7.524   6.658  64.236  0.00  0.00     0.082 H 
BRANCH  58  61
ATOM     61  C35 non d ame      -8.808   5.028  63.637  0.00  0.00    -0.034 A 
ATOM     62  C30 non d ame      -9.934   4.279  63.963  0.00  0.00    -0.075 A 
ATOM     63  C31 non d ame     -10.579   3.526  62.984  0.00  0.00    -0.082 A 
ATOM     64  H49 non d ame     -10.310   4.282  64.986  0.00  0.00     0.084 H 
ATOM     65  C32 non d ame     -10.094   3.522  61.674  0.00  0.00    -0.083 A 
ATOM     66  H50 non d ame     -11.462   2.941  63.243  0.00  0.00     0.083 H 
ATOM     67  C33 non d ame      -8.968   4.268  61.352  0.00  0.00    -0.082 A 
ATOM     68  H51 non d ame     -10.593   2.936  60.902  0.00  0.00     0.083 H 
ATOM     69  C34 non d ame      -8.321   5.025  62.328  0.00  0.00    -0.075 A 
ATOM     70  H52 non d ame      -8.590   4.261  60.330  0.00  0.00     0.083 H 
ATOM     71  H53 non d ame      -7.438   5.610  62.068  0.00  0.00     0.084 H 
ENDBRANCH  58  61
ENDBRANCH  57  58
ENDBRANCH  55  57
ENDBRANCH  52  55
ENDBRANCH  49  52
ENDBRANCH  47  49
BRANCH  47  72
ATOM     72  C24 non d ame      -8.241   8.912  69.750  0.00  0.00    -0.039 C 
ATOM     73  H35 non d ame      -8.017   8.337  70.648  0.00  0.00     0.036 H 
ATOM     74  H36 non d ame      -8.078   9.990  69.738  0.00  0.00     0.036 H 
BRANCH  72  75
ATOM     75  C25 non d ame      -9.787   8.665  69.405  0.00  0.00    -0.001 C 
ATOM     76  C26 non d ame     -10.548  10.105  69.179  0.00  0.00    -0.035 C 
ATOM     77  C27 non d ame     -11.660  10.137  69.951  0.00  0.00     0.085 C 
ATOM     78  H38 non d ame      -9.938  10.916  69.577  0.00  0.00     0.036 H 
ATOM     79  H39 non d ame     -10.939  10.166  68.163  0.00  0.00     0.036 H 
ATOM     80  N5  non d ame     -11.554   8.989  70.925  0.00  0.00    -0.049 N 
ATOM     81  H40 non d ame     -11.607  11.077  70.501  0.00  0.00     0.075 H 
ATOM     82  H41 non d ame     -12.491   9.949  69.271  0.00  0.00     0.075 H 
ATOM     83  C28 non d ame     -10.383   8.032  70.359  0.00  0.00     0.193 C 
ATOM     84  H42 non d ame     -11.249   9.386  71.803  0.00  0.00     0.280 HD
ATOM     85  H43 non d ame     -12.430   8.489  70.875  0.00  0.00     0.280 HD
ATOM     86  H44 non d ame     -10.628   7.097  69.855  0.00  0.00     0.129 H 
ATOM     87  H37 non d ame      -9.921   7.907  68.634  0.00  0.00     0.046 H 
BRANCH  83  88
ATOM     88  O6  non d ame      -9.487   7.676  71.413  0.00  0.00    -0.369 OA
ATOM     89  H45 non d ame      -8.690   7.293  71.039  0.00  0.00     0.212 HD
ENDBRANCH  83  88
ENDBRANCH  72  75
ENDBRANCH  47  72
ENDBRANCH  45  47
ENDBRANCH   1  43
BRANCH   1  90
ATOM     90  C16 non d ame      -6.315  10.014  63.979  0.00  0.00    -0.035 C 
ATOM     91  H21 non d ame      -6.582  11.001  63.602  0.00  0.00     0.037 H 
ATOM     92  H22 non d ame      -5.419   9.887  64.586  0.00  0.00     0.037 H 
BRANCH  90  93
ATOM     93  C17 non d ame      -6.133   9.099  62.727  0.00  0.00    -0.059 C 
ATOM     94  H23 non d ame      -5.623   9.683  61.961  0.00  0.00     0.038 H 
BRANCH  93  95
ATOM     95  C18 non d ame      -5.255   7.845  63.034  0.00  0.00    -0.073 C 
ATOM     96  H24 non d ame      -4.365   7.861  62.405  0.00  0.00     0.028 H 
ATOM     97  H25 non d ame      -4.958   7.857  64.083  0.00  0.00     0.028 H 
ATOM     98  H26 non d ame      -5.828   6.940  62.830  0.00  0.00     0.028 H 
ENDBRANCH  93  95
BRANCH  93  99
ATOM     99  C19 non d ame      -7.491   8.685  62.151  0.00  0.00    -0.073 C 
ATOM    100  H27 non d ame      -8.083   9.577  61.943  0.00  0.00     0.028 H 
ATOM    101  H28 non d ame      -7.339   8.126  61.228  0.00  0.00     0.028 H 
ATOM    102  H29 non d ame      -8.016   8.061  62.873  0.00  0.00     0.028 H 
ENDBRANCH  93  99
ENDBRANCH  90  93
ENDBRANCH   1  90
TORSDOF 26
ENDMDL
MODEL 15
REMARK VINA RESULT:      -6.4      3.669      9.537
REMARK  26 active torsions:
REMARK  status: ('A' for Active; 'I' for Inactive)
REMARK    1  A    between atoms: C2_2  and  C3_3 
REMARK    2  A    between atoms: C4_6  and  C5_7 
REMARK       I    between atoms: C5_7  and  N2_9 
REMARK    3  A    between atoms: N2_9  and  C6_10 
REMARK    4  A    between atoms: C6_10  and  C7_11 
REMARK    5  A    between atoms: C6_10  and  C8_13 
REMARK       I    between atoms: C7_11  and  N3_14 
REMARK    6  A    between atoms: N3_14  and  C9_15 
REMARK    7  A    between atoms: C9_15  and  C10_16 
REMARK    8  A    between atoms: C9_15  and  C11_18 
REMARK       I    between atoms: C10_16  and  N4_21 
REMARK    9  A    between atoms: C11_18  and  C12_19 
REMARK   10  A    between atoms: C11_18  and  C13_20 
REMARK   11  A    between atoms: N4_21  and  C14_22 
REMARK   12  A    between atoms: C14_22  and  C15_23 
REMARK   13  A    between atoms: C14_22  and  C16_25 
REMARK       I    between atoms: C15_23  and  N6_40 
REMARK   14  A    between atoms: C16_25  and  C17_26 
REMARK   15  A    between atoms: C17_26  and  C18_27 
REMARK   16  A    between atoms: C17_26  and  C19_28 
REMARK   17  A    between atoms: C20_29  and  C21_30 
REMARK   18  A    between atoms: C20_29  and  C24_33 
REMARK   19  A    between atoms: C20_29  and  N6_40 
REMARK   20  A    between atoms: C21_30  and  C22_31 
REMARK   21  A    between atoms: C22_31  and  C23_32 
REMARK   22  A    between atoms: C23_32  and  O8_43 
REMARK   23  A    between atoms: C24_33  and  C25_34 
REMARK   24  A    between atoms: C28_38  and  O6_39 
REMARK   25  A    between atoms: C29_42  and  O8_43 
REMARK   26  A    between atoms: C29_42  and  C35_49 
ROOT
ATOM      1  C14 non d ame      -8.234   8.334  62.839  0.00  0.00     0.089 C 
ATOM      2  H20 non d ame      -8.783   8.375  61.899  0.00  0.00     0.087 H 
ENDROOT
BRANCH   1   3
ATOM      3  N4  non d ame      -8.989   9.098  63.821  0.00  0.00    -0.346 N 
ATOM      4  C10 non d ame      -9.533  10.460  63.472  0.00  0.00     0.241 C 
ATOM      5  O4  non d ame      -9.349  10.922  62.394  0.00  0.00    -0.271 OA
ATOM      6  H19 non d ame      -9.133   8.688  64.734  0.00  0.00     0.163 HD
BRANCH   4   7
ATOM      7  C9  non d ame     -10.317  11.235  64.499  0.00  0.00     0.092 C 
ATOM      8  H11 non d ame     -10.944  10.547  65.066  0.00  0.00     0.088 H 
BRANCH   7   9
ATOM      9  N3  non d ame      -9.393  11.860  65.449  0.00  0.00    -0.346 N 
ATOM     10  C7  non d ame      -9.438  11.499  66.844  0.00  0.00     0.240 C 
ATOM     11  O3  non d ame     -10.213  10.706  67.220  0.00  0.00    -0.271 OA
ATOM     12  H10 non d ame      -8.720  12.547  65.140  0.00  0.00     0.163 HD
BRANCH  10  13
ATOM     13  C6  non d ame      -8.454  12.171  67.851  0.00  0.00     0.086 C 
ATOM     14  H6  non d ame      -7.506  12.451  67.392  0.00  0.00     0.086 H 
BRANCH  13  15
ATOM     15  N2  non d ame      -9.054  13.398  68.348  0.00  0.00    -0.343 N 
ATOM     16  C5  non d ame      -8.888  14.640  67.589  0.00  0.00     0.273 C 
ATOM     17  O2  non d ame      -8.269  14.642  66.583  0.00  0.00    -0.266 OA
ATOM     18  H5  non d ame      -9.580  13.388  69.209  0.00  0.00     0.163 HD
BRANCH  16  19
ATOM     19  C4  non d ame      -9.519  15.945  68.101  0.00  0.00     0.154 A 
ATOM     20  C1  non d ame      -9.192  17.279  67.700  0.00  0.00    -0.017 A 
ATOM     21  C2  non d ame     -10.048  18.107  68.459  0.00  0.00     0.077 A 
ATOM     22  H1  non d ame      -8.447  17.597  66.970  0.00  0.00     0.091 H 
ATOM     23  O1  non d ame     -10.779  17.330  69.204  0.00  0.00    -0.218 OA
ATOM     24  N1  non d ame     -10.488  16.064  69.014  0.00  0.00    -0.123 NA
BRANCH  21  25
ATOM     25  C3  non d ame     -10.107  19.628  68.410  0.00  0.00    -0.029 C 
ATOM     26  H2  non d ame      -9.339  20.001  67.731  0.00  0.00     0.036 H 
ATOM     27  H3  non d ame     -11.088  19.942  68.056  0.00  0.00     0.036 H 
ATOM     28  H4  non d ame      -9.936  20.031  69.409  0.00  0.00     0.036 H 
ENDBRANCH  21  25
ENDBRANCH  16  19
ENDBRANCH  13  15
BRANCH  13  29
ATOM     29  C8  non d ame      -8.181  11.230  68.997  0.00  0.00    -0.049 C 
ATOM     30  H7  non d ame      -7.778  10.294  68.610  0.00  0.00     0.030 H 
ATOM     31  H8  non d ame      -7.458  11.684  69.675  0.00  0.00     0.030 H 
ATOM     32  H9  non d ame      -9.108  11.031  69.533  0.00  0.00     0.030 H 
ENDBRANCH  13  29
ENDBRANCH  10  13
ENDBRANCH   7   9
BRANCH   7  33
ATOM     33  C11 non d ame     -11.154  12.339  63.788  0.00  0.00    -0.033 C 
ATOM     34  H12 non d ame     -10.682  12.540  62.826  0.00  0.00     0.042 H 
BRANCH  33  35
ATOM     35  C12 non d ame     -12.610  11.855  63.505  0.00  0.00    -0.071 C 
ATOM     36  H13 non d ame     -13.238  12.713  63.266  0.00  0.00     0.028 H 
ATOM     37  H14 non d ame     -12.605  11.162  62.663  0.00  0.00     0.028 H 
ATOM     38  H15 non d ame     -13.002  11.350  64.388  0.00  0.00     0.028 H 
ENDBRANCH  33  35
BRANCH  33  39
ATOM     39  C13 non d ame     -11.148  13.664  64.617  0.00  0.00    -0.071 C 
ATOM     40  H16 non d ame     -10.297  14.275  64.319  0.00  0.00     0.028 H 
ATOM     41  H17 non d ame     -12.072  14.212  64.432  0.00  0.00     0.028 H 
ATOM     42  H18 non d ame     -11.071  13.427  65.678  0.00  0.00     0.028 H 
ENDBRANCH  33  39
ENDBRANCH   7  33
ENDBRANCH   4   7
ENDBRANCH   1   3
BRANCH   1  43
ATOM     43  C15 non d ame      -8.073   6.878  63.362  0.00  0.00     0.240 C 
ATOM     44  O5  non d ame      -7.497   6.073  62.703  0.00  0.00    -0.271 OA
ATOM     45  N6  non d ame      -8.630   6.487  64.688  0.00  0.00    -0.355 N 
ATOM     46  H46 non d ame      -9.118   7.162  65.259  0.00  0.00     0.162 HD
BRANCH  45  47
ATOM     47  C20 non d ame      -8.468   5.099  65.171  0.00  0.00     0.013 C 
ATOM     48  H30 non d ame      -8.076   4.501  64.348  0.00  0.00     0.072 H 
BRANCH  47  49
ATOM     49  C21 non d ame      -9.812   4.560  65.606  0.00  0.00    -0.038 C 
ATOM     50  H31 non d ame     -10.551   5.258  65.213  0.00  0.00     0.036 H 
ATOM     51  H32 non d ame      -9.826   3.515  65.291  0.00  0.00     0.036 H 
BRANCH  49  52
ATOM     52  C22 non d ame      -9.988   4.554  67.140  0.00  0.00     0.018 C 
ATOM     53  H33 non d ame     -10.601   3.680  67.365  0.00  0.00     0.048 H 
ATOM     54  H34 non d ame      -8.982   4.636  67.553  0.00  0.00     0.048 H 
BRANCH  52  55
ATOM     55  C23 non d ame     -10.776   5.779  67.684  0.00  0.00     0.259 C 
ATOM     56  O7  non d ame     -11.095   6.661  66.955  0.00  0.00    -0.265 OA
BRANCH  55  57
ATOM     57  O8  non d ame     -11.100   5.842  69.067  0.00  0.00    -0.317 OA
BRANCH  57  58
ATOM     58  C29 non d ame     -10.310   6.775  69.810  0.00  0.00     0.052 C 
ATOM     59  H47 non d ame      -9.803   6.189  70.575  0.00  0.00     0.082 H 
ATOM     60  H48 non d ame      -9.728   7.323  69.069  0.00  0.00     0.082 H 
BRANCH  58  61
ATOM     61  C35 non d ame     -11.275   7.769  70.509  0.00  0.00    -0.034 A 
ATOM     62  C30 non d ame     -12.382   7.293  71.203  0.00  0.00    -0.075 A 
ATOM     63  C31 non d ame     -13.249   8.185  71.831  0.00  0.00    -0.082 A 
ATOM     64  H49 non d ame     -12.571   6.221  71.254  0.00  0.00     0.084 H 
ATOM     65  C32 non d ame     -13.006   9.559  71.762  0.00  0.00    -0.083 A 
ATOM     66  H50 non d ame     -14.115   7.809  72.376  0.00  0.00     0.083 H 
ATOM     67  C33 non d ame     -11.901  10.031  71.066  0.00  0.00    -0.082 A 
ATOM     68  H51 non d ame     -13.679  10.264  72.251  0.00  0.00     0.083 H 
ATOM     69  C34 non d ame     -11.031   9.142  70.438  0.00  0.00    -0.075 A 
ATOM     70  H52 non d ame     -11.716  11.104  71.012  0.00  0.00     0.083 H 
ATOM     71  H53 non d ame     -10.164   9.520  69.894  0.00  0.00     0.084 H 
ENDBRANCH  58  61
ENDBRANCH  57  58
ENDBRANCH  55  57
ENDBRANCH  52  55
ENDBRANCH  49  52
ENDBRANCH  47  49
BRANCH  47  72
ATOM     72  C24 non d ame      -7.501   5.073  66.353  0.00  0.00    -0.039 C 
ATOM     73  H35 non d ame      -7.608   6.044  66.836  0.00  0.00     0.036 H 
ATOM     74  H36 non d ame      -7.739   4.162  66.903  0.00  0.00     0.036 H 
BRANCH  72  75
ATOM     75  C25 non d ame      -5.979   4.950  65.871  0.00  0.00    -0.001 C 
ATOM     76  C26 non d ame      -5.271   3.644  66.576  0.00  0.00    -0.035 C 
ATOM     77  C27 non d ame      -4.109   4.034  67.151  0.00  0.00     0.085 C 
ATOM     78  H38 non d ame      -5.871   3.305  67.420  0.00  0.00     0.036 H 
ATOM     79  H39 non d ame      -4.952   2.933  65.813  0.00  0.00     0.036 H 
ATOM     80  N5  non d ame      -4.117   5.543  67.185  0.00  0.00    -0.049 N 
ATOM     81  H40 non d ame      -4.146   3.655  68.172  0.00  0.00     0.075 H 
ATOM     82  H41 non d ame      -3.322   3.700  66.474  0.00  0.00     0.075 H 
ATOM     83  C28 non d ame      -5.301   6.003  66.187  0.00  0.00     0.193 C 
ATOM     84  H42 non d ame      -4.371   5.807  68.126  0.00  0.00     0.280 HD
ATOM     85  H43 non d ame      -3.235   5.844  66.796  0.00  0.00     0.280 HD
ATOM     86  H44 non d ame      -5.069   6.396  65.197  0.00  0.00     0.129 H 
ATOM     87  H37 non d ame      -5.879   5.044  64.789  0.00  0.00     0.046 H 
BRANCH  83  88
ATOM     88  O6  non d ame      -6.113   6.999  66.812  0.00  0.00    -0.369 OA
ATOM     89  H45 non d ame      -6.149   6.835  67.757  0.00  0.00     0.212 HD
ENDBRANCH  83  88
ENDBRANCH  72  75
ENDBRANCH  47  72
ENDBRANCH  45  47
ENDBRANCH   1  43
BRANCH   1  90
ATOM     90  C16 non d ame      -6.863   8.968  62.664  0.00  0.00    -0.035 C 
ATOM     91  H21 non d ame      -6.408   8.443  61.823  0.00  0.00     0.037 H 
ATOM     92  H22 non d ame      -7.047  10.040  62.601  0.00  0.00     0.037 H 
BRANCH  90  93
ATOM     93  C17 non d ame      -5.913   8.753  63.884  0.00  0.00    -0.059 C 
ATOM     94  H23 non d ame      -6.380   8.020  64.541  0.00  0.00     0.038 H 
BRANCH  93  95
ATOM     95  C18 non d ame      -4.520   8.191  63.456  0.00  0.00    -0.073 C 
ATOM     96  H24 non d ame      -4.228   7.389  64.134  0.00  0.00     0.028 H 
ATOM     97  H25 non d ame      -4.582   7.802  62.439  0.00  0.00     0.028 H 
ATOM     98  H26 non d ame      -3.778   8.988  63.494  0.00  0.00     0.028 H 
ENDBRANCH  93  95
BRANCH  93  99
ATOM     99  C19 non d ame      -5.755  10.047  64.688  0.00  0.00    -0.073 C 
ATOM    100  H27 non d ame      -4.876  10.587  64.337  0.00  0.00     0.028 H 
ATOM    101  H28 non d ame      -6.641  10.668  64.555  0.00  0.00     0.028 H 
ATOM    102  H29 non d ame      -5.635   9.805  65.744  0.00  0.00     0.028 H 
ENDBRANCH  93  99
ENDBRANCH  90  93
ENDBRANCH   1  90
TORSDOF 26
ENDMDL
MODEL 16
REMARK VINA RESULT:      -6.4      3.358      7.499
REMARK  26 active torsions:
REMARK  status: ('A' for Active; 'I' for Inactive)
REMARK    1  A    between atoms: C2_2  and  C3_3 
REMARK    2  A    between atoms: C4_6  and  C5_7 
REMARK       I    between atoms: C5_7  and  N2_9 
REMARK    3  A    between atoms: N2_9  and  C6_10 
REMARK    4  A    between atoms: C6_10  and  C7_11 
REMARK    5  A    between atoms: C6_10  and  C8_13 
REMARK       I    between atoms: C7_11  and  N3_14 
REMARK    6  A    between atoms: N3_14  and  C9_15 
REMARK    7  A    between atoms: C9_15  and  C10_16 
REMARK    8  A    between atoms: C9_15  and  C11_18 
REMARK       I    between atoms: C10_16  and  N4_21 
REMARK    9  A    between atoms: C11_18  and  C12_19 
REMARK   10  A    between atoms: C11_18  and  C13_20 
REMARK   11  A    between atoms: N4_21  and  C14_22 
REMARK   12  A    between atoms: C14_22  and  C15_23 
REMARK   13  A    between atoms: C14_22  and  C16_25 
REMARK       I    between atoms: C15_23  and  N6_40 
REMARK   14  A    between atoms: C16_25  and  C17_26 
REMARK   15  A    between atoms: C17_26  and  C18_27 
REMARK   16  A    between atoms: C17_26  and  C19_28 
REMARK   17  A    between atoms: C20_29  and  C21_30 
REMARK   18  A    between atoms: C20_29  and  C24_33 
REMARK   19  A    between atoms: C20_29  and  N6_40 
REMARK   20  A    between atoms: C21_30  and  C22_31 
REMARK   21  A    between atoms: C22_31  and  C23_32 
REMARK   22  A    between atoms: C23_32  and  O8_43 
REMARK   23  A    between atoms: C24_33  and  C25_34 
REMARK   24  A    between atoms: C28_38  and  O6_39 
REMARK   25  A    between atoms: C29_42  and  O8_43 
REMARK   26  A    between atoms: C29_42  and  C35_49 
ROOT
ATOM      1  C14 non d ame     -10.615  10.531  67.474  0.00  0.00     0.089 C 
ATOM      2  H20 non d ame      -9.565  10.600  67.757  0.00  0.00     0.087 H 
ENDROOT
BRANCH   1   3
ATOM      3  N4  non d ame     -11.207   9.448  68.245  0.00  0.00    -0.346 N 
ATOM      4  C10 non d ame     -10.785   9.211  69.673  0.00  0.00     0.241 C 
ATOM      5  O4  non d ame      -9.965   9.904  70.180  0.00  0.00    -0.271 OA
ATOM      6  H19 non d ame     -11.901   8.869  67.794  0.00  0.00     0.163 HD
BRANCH   4   7
ATOM      7  C9  non d ame     -11.412   8.089  70.458  0.00  0.00     0.092 C 
ATOM      8  H11 non d ame     -12.338   7.784  69.971  0.00  0.00     0.088 H 
BRANCH   7   9
ATOM      9  N3  non d ame     -10.517   6.928  70.451  0.00  0.00    -0.346 N 
ATOM     10  C7  non d ame     -10.537   6.009  69.341  0.00  0.00     0.240 C 
ATOM     11  O3  non d ame     -11.268   6.187  68.444  0.00  0.00    -0.271 OA
ATOM     12  H10 non d ame      -9.883   6.760  71.219  0.00  0.00     0.163 HD
BRANCH  10  13
ATOM     13  C6  non d ame      -9.584   4.773  69.341  0.00  0.00     0.086 C 
ATOM     14  H6  non d ame     -10.058   3.875  68.945  0.00  0.00     0.086 H 
BRANCH  13  15
ATOM     15  N2  non d ame      -8.446   5.055  68.483  0.00  0.00    -0.343 N 
ATOM     16  C5  non d ame      -8.429   4.535  67.114  0.00  0.00     0.273 C 
ATOM     17  O2  non d ame      -9.334   3.889  66.714  0.00  0.00    -0.266 OA
ATOM     18  H5  non d ame      -7.676   5.606  68.833  0.00  0.00     0.163 HD
BRANCH  16  19
ATOM     19  C4  non d ame      -7.233   4.827  66.194  0.00  0.00     0.154 A 
ATOM     20  C1  non d ame      -7.224   5.650  65.023  0.00  0.00    -0.017 A 
ATOM     21  C2  non d ame      -5.895   5.590  64.547  0.00  0.00     0.077 A 
ATOM     22  H1  non d ame      -8.054   6.206  64.585  0.00  0.00     0.091 H 
ATOM     23  O1  non d ame      -5.227   4.822  65.357  0.00  0.00    -0.218 OA
ATOM     24  N1  non d ame      -5.987   4.364  66.326  0.00  0.00    -0.123 NA
BRANCH  21  25
ATOM     25  C3  non d ame      -5.347   6.296  63.315  0.00  0.00    -0.029 C 
ATOM     26  H2  non d ame      -4.725   5.605  62.744  0.00  0.00     0.036 H 
ATOM     27  H3  non d ame      -6.174   6.637  62.693  0.00  0.00     0.036 H 
ATOM     28  H4  non d ame      -4.747   7.154  63.622  0.00  0.00     0.036 H 
ENDBRANCH  21  25
ENDBRANCH  16  19
ENDBRANCH  13  15
BRANCH  13  29
ATOM     29  C8  non d ame      -9.115   4.497  70.747  0.00  0.00    -0.049 C 
ATOM     30  H7  non d ame      -9.910   4.743  71.451  0.00  0.00     0.030 H 
ATOM     31  H8  non d ame      -8.858   3.441  70.843  0.00  0.00     0.030 H 
ATOM     32  H9  non d ame      -8.238   5.106  70.963  0.00  0.00     0.030 H 
ENDBRANCH  13  29
ENDBRANCH  10  13
ENDBRANCH   7   9
BRANCH   7  33
ATOM     33  C11 non d ame     -11.648   8.551  71.926  0.00  0.00    -0.033 C 
ATOM     34  H12 non d ame     -11.146   9.511  72.053  0.00  0.00     0.042 H 
BRANCH  33  35
ATOM     35  C12 non d ame     -13.165   8.774  72.215  0.00  0.00    -0.071 C 
ATOM     36  H13 non d ame     -13.758   8.178  71.521  0.00  0.00     0.028 H 
ATOM     37  H14 non d ame     -13.389   8.469  73.237  0.00  0.00     0.028 H 
ATOM     38  H15 non d ame     -13.407   9.829  72.089  0.00  0.00     0.028 H 
ENDBRANCH  33  35
BRANCH  33  39
ATOM     39  C13 non d ame     -11.020   7.539  72.938  0.00  0.00    -0.071 C 
ATOM     40  H16 non d ame      -9.962   7.762  73.065  0.00  0.00     0.028 H 
ATOM     41  H17 non d ame     -11.528   7.624  73.899  0.00  0.00     0.028 H 
ATOM     42  H18 non d ame     -11.135   6.526  72.554  0.00  0.00     0.028 H 
ENDBRANCH  33  39
ENDBRANCH   7  33
ENDBRANCH   4   7
ENDBRANCH   1   3
BRANCH   1  43
ATOM     43  C15 non d ame     -11.394  11.842  67.782  0.00  0.00     0.240 C 
ATOM     44  O5  non d ame     -12.319  12.154  67.103  0.00  0.00    -0.271 OA
ATOM     45  N6  non d ame     -10.993  12.705  68.930  0.00  0.00    -0.355 N 
ATOM     46  H46 non d ame     -10.212  12.449  69.516  0.00  0.00     0.162 HD
BRANCH  45  47
ATOM     47  C20 non d ame     -11.745  13.947  69.210  0.00  0.00     0.013 C 
ATOM     48  H30 non d ame     -12.535  14.037  68.465  0.00  0.00     0.072 H 
BRANCH  47  49
ATOM     49  C21 non d ame     -10.808  15.131  69.115  0.00  0.00    -0.038 C 
ATOM     50  H31 non d ame     -11.072  15.783  69.948  0.00  0.00     0.036 H 
ATOM     51  H32 non d ame      -9.805  14.707  69.050  0.00  0.00     0.036 H 
BRANCH  49  52
ATOM     52  C22 non d ame     -11.017  15.958  67.828  0.00  0.00     0.018 C 
ATOM     53  H33 non d ame     -12.034  15.740  67.498  0.00  0.00     0.048 H 
ATOM     54  H34 non d ame     -10.734  16.979  68.085  0.00  0.00     0.048 H 
BRANCH  52  55
ATOM     55  C23 non d ame     -10.088  15.536  66.656  0.00  0.00     0.259 C 
ATOM     56  O7  non d ame     -10.090  14.417  66.258  0.00  0.00    -0.265 OA
BRANCH  55  57
ATOM     57  O8  non d ame      -9.222  16.501  66.071  0.00  0.00    -0.317 OA
BRANCH  57  58
ATOM     58  C29 non d ame      -7.880  16.455  66.563  0.00  0.00     0.052 C 
ATOM     59  H47 non d ame      -7.896  15.758  67.400  0.00  0.00     0.082 H 
ATOM     60  H48 non d ame      -7.254  16.248  65.695  0.00  0.00     0.082 H 
BRANCH  58  61
ATOM     61  C35 non d ame      -7.519  17.864  67.103  0.00  0.00    -0.034 A 
ATOM     62  C30 non d ame      -7.237  18.041  68.454  0.00  0.00    -0.075 A 
ATOM     63  C31 non d ame      -6.914  19.307  68.939  0.00  0.00    -0.082 A 
ATOM     64  H49 non d ame      -7.270  17.189  69.131  0.00  0.00     0.084 H 
ATOM     65  C32 non d ame      -6.875  20.399  68.068  0.00  0.00    -0.083 A 
ATOM     66  H50 non d ame      -6.691  19.442  69.997  0.00  0.00     0.083 H 
ATOM     67  C33 non d ame      -7.160  20.219  66.722  0.00  0.00    -0.082 A 
ATOM     68  H51 non d ame      -6.622  21.393  68.439  0.00  0.00     0.083 H 
ATOM     69  C34 non d ame      -7.482  18.954  66.232  0.00  0.00    -0.075 A 
ATOM     70  H52 non d ame      -7.131  21.073  66.045  0.00  0.00     0.083 H 
ATOM     71  H53 non d ame      -7.704  18.820  65.172  0.00  0.00     0.084 H 
ENDBRANCH  58  61
ENDBRANCH  57  58
ENDBRANCH  55  57
ENDBRANCH  52  55
ENDBRANCH  49  52
ENDBRANCH  47  49
BRANCH  47  72
ATOM     72  C24 non d ame     -12.343  13.882  70.613  0.00  0.00    -0.039 C 
ATOM     73  H35 non d ame     -13.331  13.439  70.488  0.00  0.00     0.036 H 
ATOM     74  H36 non d ame     -11.595  13.379  71.226  0.00  0.00     0.036 H 
BRANCH  72  75
ATOM     75  C25 non d ame     -12.557  15.343  71.235  0.00  0.00    -0.001 C 
ATOM     76  C26 non d ame     -11.619  15.526  72.573  0.00  0.00    -0.035 C 
ATOM     77  C27 non d ame     -12.393  15.968  73.592  0.00  0.00     0.085 C 
ATOM     78  H38 non d ame     -11.271  14.554  72.921  0.00  0.00     0.036 H 
ATOM     79  H39 non d ame     -10.907  16.338  72.423  0.00  0.00     0.036 H 
ATOM     80  N5  non d ame     -13.830  15.793  73.164  0.00  0.00    -0.049 N 
ATOM     81  H40 non d ame     -12.187  15.298  74.427  0.00  0.00     0.075 H 
ATOM     82  H41 non d ame     -12.178  17.033  73.681  0.00  0.00     0.075 H 
ATOM     83  C28 non d ame     -13.790  15.533  71.570  0.00  0.00     0.193 C 
ATOM     84  H42 non d ame     -14.163  14.954  73.617  0.00  0.00     0.280 HD
ATOM     85  H43 non d ame     -14.290  16.675  73.334  0.00  0.00     0.280 HD
ATOM     86  H44 non d ame     -14.066  16.325  70.873  0.00  0.00     0.129 H 
ATOM     87  H37 non d ame     -12.500  16.126  70.478  0.00  0.00     0.046 H 
BRANCH  83  88
ATOM     88  O6  non d ame     -14.618  14.420  71.232  0.00  0.00    -0.369 OA
ATOM     89  H45 non d ame     -14.453  13.700  71.845  0.00  0.00     0.212 HD
ENDBRANCH  83  88
ENDBRANCH  72  75
ENDBRANCH  47  72
ENDBRANCH  45  47
ENDBRANCH   1  43
BRANCH   1  90
ATOM     90  C16 non d ame     -10.728  10.206  65.992  0.00  0.00    -0.035 C 
ATOM     91  H21 non d ame     -10.455   9.154  65.906  0.00  0.00     0.037 H 
ATOM     92  H22 non d ame     -11.725  10.536  65.700  0.00  0.00     0.037 H 
BRANCH  90  93
ATOM     93  C17 non d ame      -9.721  10.997  65.099  0.00  0.00    -0.059 C 
ATOM     94  H23 non d ame      -9.241  11.747  65.727  0.00  0.00     0.038 H 
BRANCH  93  95
ATOM     95  C18 non d ame      -8.603  10.078  64.514  0.00  0.00    -0.073 C 
ATOM     96  H24 non d ame      -8.018   9.652  65.330  0.00  0.00     0.028 H 
ATOM     97  H25 non d ame      -9.059   9.273  63.937  0.00  0.00     0.028 H 
ATOM     98  H26 non d ame      -7.951  10.664  63.866  0.00  0.00     0.028 H 
ENDBRANCH  93  95
BRANCH  93  99
ATOM     99  C19 non d ame     -10.453  11.744  63.980  0.00  0.00    -0.073 C 
ATOM    100  H27 non d ame     -10.565  11.087  63.118  0.00  0.00     0.028 H 
ATOM    101  H28 non d ame     -11.438  12.052  64.333  0.00  0.00     0.028 H 
ATOM    102  H29 non d ame      -9.878  12.624  63.695  0.00  0.00     0.028 H 
ENDBRANCH  93  99
ENDBRANCH  90  93
ENDBRANCH   1  90
TORSDOF 26
ENDMDL
MODEL 17
REMARK VINA RESULT:      -6.4      3.528      9.751
REMARK  26 active torsions:
REMARK  status: ('A' for Active; 'I' for Inactive)
REMARK    1  A    between atoms: C2_2  and  C3_3 
REMARK    2  A    between atoms: C4_6  and  C5_7 
REMARK       I    between atoms: C5_7  and  N2_9 
REMARK    3  A    between atoms: N2_9  and  C6_10 
REMARK    4  A    between atoms: C6_10  and  C7_11 
REMARK    5  A    between atoms: C6_10  and  C8_13 
REMARK       I    between atoms: C7_11  and  N3_14 
REMARK    6  A    between atoms: N3_14  and  C9_15 
REMARK    7  A    between atoms: C9_15  and  C10_16 
REMARK    8  A    between atoms: C9_15  and  C11_18 
REMARK       I    between atoms: C10_16  and  N4_21 
REMARK    9  A    between atoms: C11_18  and  C12_19 
REMARK   10  A    between atoms: C11_18  and  C13_20 
REMARK   11  A    between atoms: N4_21  and  C14_22 
REMARK   12  A    between atoms: C14_22  and  C15_23 
REMARK   13  A    between atoms: C14_22  and  C16_25 
REMARK       I    between atoms: C15_23  and  N6_40 
REMARK   14  A    between atoms: C16_25  and  C17_26 
REMARK   15  A    between atoms: C17_26  and  C18_27 
REMARK   16  A    between atoms: C17_26  and  C19_28 
REMARK   17  A    between atoms: C20_29  and  C21_30 
REMARK   18  A    between atoms: C20_29  and  C24_33 
REMARK   19  A    between atoms: C20_29  and  N6_40 
REMARK   20  A    between atoms: C21_30  and  C22_31 
REMARK   21  A    between atoms: C22_31  and  C23_32 
REMARK   22  A    between atoms: C23_32  and  O8_43 
REMARK   23  A    between atoms: C24_33  and  C25_34 
REMARK   24  A    between atoms: C28_38  and  O6_39 
REMARK   25  A    between atoms: C29_42  and  O8_43 
REMARK   26  A    between atoms: C29_42  and  C35_49 
ROOT
ATOM      1  C14 non d ame      -7.755   9.110  64.179  0.00  0.00     0.089 C 
ATOM      2  H20 non d ame      -7.657   9.435  63.144  0.00  0.00     0.087 H 
ENDROOT
BRANCH   1   3
ATOM      3  N4  non d ame      -8.701  10.001  64.833  0.00  0.00    -0.346 N 
ATOM      4  C10 non d ame      -9.672  10.814  64.014  0.00  0.00     0.241 C 
ATOM      5  O4  non d ame      -9.671  10.735  62.829  0.00  0.00    -0.271 OA
ATOM      6  H19 non d ame      -8.683  10.056  65.842  0.00  0.00     0.163 HD
BRANCH   4   7
ATOM      7  C9  non d ame     -10.648  11.728  64.706  0.00  0.00     0.092 C 
ATOM      8  H11 non d ame     -11.296  11.137  65.353  0.00  0.00     0.088 H 
BRANCH   7   9
ATOM      9  N3  non d ame      -9.916  12.663  65.567  0.00  0.00    -0.346 N 
ATOM     10  C7  non d ame     -10.318  12.845  66.940  0.00  0.00     0.240 C 
ATOM     11  O3  non d ame     -11.230  12.249  67.368  0.00  0.00    -0.271 OA
ATOM     12  H10 non d ame      -9.129  13.185  65.211  0.00  0.00     0.163 HD
BRANCH  10  13
ATOM     13  C6  non d ame      -9.538  13.844  67.849  0.00  0.00     0.086 C 
ATOM     14  H6  non d ame      -9.468  14.842  67.417  0.00  0.00     0.086 H 
BRANCH  13  15
ATOM     15  N2  non d ame     -10.247  13.986  69.110  0.00  0.00    -0.343 N 
ATOM     16  C5  non d ame     -11.101  15.156  69.329  0.00  0.00     0.273 C 
ATOM     17  O2  non d ame     -11.207  15.978  68.487  0.00  0.00    -0.266 OA
ATOM     18  H5  non d ame     -10.149  13.280  69.825  0.00  0.00     0.163 HD
BRANCH  16  19
ATOM     19  C4  non d ame     -11.858  15.318  70.656  0.00  0.00     0.154 A 
ATOM     20  C1  non d ame     -11.304  15.305  71.976  0.00  0.00    -0.017 A 
ATOM     21  C2  non d ame     -12.408  15.492  72.837  0.00  0.00     0.077 A 
ATOM     22  H1  non d ame     -10.260  15.179  72.265  0.00  0.00     0.091 H 
ATOM     23  O1  non d ame     -13.468  15.600  72.089  0.00  0.00    -0.218 OA
ATOM     24  N1  non d ame     -13.172  15.501  70.813  0.00  0.00    -0.123 NA
BRANCH  21  25
ATOM     25  C3  non d ame     -12.366  15.557  74.357  0.00  0.00    -0.029 C 
ATOM     26  H2  non d ame     -11.802  14.706  74.742  0.00  0.00     0.036 H 
ATOM     27  H3  non d ame     -11.882  16.483  74.667  0.00  0.00     0.036 H 
ATOM     28  H4  non d ame     -13.382  15.528  74.752  0.00  0.00     0.036 H 
ENDBRANCH  21  25
ENDBRANCH  16  19
ENDBRANCH  13  15
BRANCH  13  29
ATOM     29  C8  non d ame      -8.146  13.321  68.097  0.00  0.00    -0.049 C 
ATOM     30  H7  non d ame      -8.180  12.237  68.215  0.00  0.00     0.030 H 
ATOM     31  H8  non d ame      -7.507  13.574  67.250  0.00  0.00     0.030 H 
ATOM     32  H9  non d ame      -7.744  13.772  69.003  0.00  0.00     0.030 H 
ENDBRANCH  13  29
ENDBRANCH  10  13
ENDBRANCH   7   9
BRANCH   7  33
ATOM     33  C11 non d ame     -11.454  12.529  63.642  0.00  0.00    -0.033 C 
ATOM     34  H12 non d ame     -10.819  12.640  62.764  0.00  0.00     0.042 H 
BRANCH  33  35
ATOM     35  C12 non d ame     -12.736  11.756  63.200  0.00  0.00    -0.071 C 
ATOM     36  H13 non d ame     -12.953  10.970  63.923  0.00  0.00     0.028 H 
ATOM     37  H14 non d ame     -13.578  12.446  63.151  0.00  0.00     0.028 H 
ATOM     38  H15 non d ame     -12.571  11.314  62.218  0.00  0.00     0.028 H 
ENDBRANCH  33  35
BRANCH  33  39
ATOM     39  C13 non d ame     -11.807  13.958  64.167  0.00  0.00    -0.071 C 
ATOM     40  H16 non d ame     -12.750  14.283  63.729  0.00  0.00     0.028 H 
ATOM     41  H17 non d ame     -11.898  13.934  65.253  0.00  0.00     0.028 H 
ATOM     42  H18 non d ame     -11.016  14.653  63.885  0.00  0.00     0.028 H 
ENDBRANCH  33  39
ENDBRANCH   7  33
ENDBRANCH   4   7
ENDBRANCH   1   3
BRANCH   1  43
ATOM     43  C15 non d ame      -8.290   7.653  64.289  0.00  0.00     0.240 C 
ATOM     44  O5  non d ame      -8.352   6.971  63.317  0.00  0.00    -0.271 OA
ATOM     45  N6  non d ame      -8.717   7.105  65.608  0.00  0.00    -0.355 N 
ATOM     46  H46 non d ame      -8.665   7.673  66.441  0.00  0.00     0.162 HD
BRANCH  45  47
ATOM     47  C20 non d ame      -9.223   5.718  65.696  0.00  0.00     0.013 C 
ATOM     48  H30 non d ame      -9.498   5.397  64.691  0.00  0.00     0.072 H 
BRANCH  47  49
ATOM     49  C21 non d ame     -10.435   5.683  66.598  0.00  0.00    -0.038 C 
ATOM     50  H31 non d ame     -11.263   6.055  65.994  0.00  0.00     0.036 H 
ATOM     51  H32 non d ame     -10.469   4.673  67.007  0.00  0.00     0.036 H 
BRANCH  49  52
ATOM     52  C22 non d ame     -10.312   6.638  67.805  0.00  0.00     0.018 C 
ATOM     53  H33 non d ame      -9.377   7.180  67.659  0.00  0.00     0.048 H 
ATOM     54  H34 non d ame     -11.256   7.182  67.850  0.00  0.00     0.048 H 
BRANCH  52  55
ATOM     55  C23 non d ame     -10.173   5.907  69.170  0.00  0.00     0.259 C 
ATOM     56  O7  non d ame     -10.118   4.721  69.215  0.00  0.00    -0.265 OA
BRANCH  55  57
ATOM     57  O8  non d ame     -10.126   6.671  70.368  0.00  0.00    -0.317 OA
BRANCH  57  58
ATOM     58  C29 non d ame      -9.810   8.052  70.169  0.00  0.00     0.052 C 
ATOM     59  H47 non d ame      -8.933   8.246  70.785  0.00  0.00     0.082 H 
ATOM     60  H48 non d ame      -9.758   8.189  69.088  0.00  0.00     0.082 H 
BRANCH  58  61
ATOM     61  C35 non d ame     -10.992   8.897  70.714  0.00  0.00    -0.034 A 
ATOM     62  C30 non d ame     -11.217  10.178  70.221  0.00  0.00    -0.075 A 
ATOM     63  C31 non d ame     -12.278  10.938  70.711  0.00  0.00    -0.082 A 
ATOM     64  H49 non d ame     -10.563  10.587  69.452  0.00  0.00     0.084 H 
ATOM     65  C32 non d ame     -13.114  10.412  71.700  0.00  0.00    -0.083 A 
ATOM     66  H50 non d ame     -12.453  11.940  70.322  0.00  0.00     0.083 H 
ATOM     67  C33 non d ame     -12.884   9.134  72.192  0.00  0.00    -0.082 A 
ATOM     68  H51 non d ame     -13.947  10.999  72.089  0.00  0.00     0.083 H 
ATOM     69  C34 non d ame     -11.826   8.371  71.702  0.00  0.00    -0.075 A 
ATOM     70  H52 non d ame     -13.537   8.728  72.964  0.00  0.00     0.083 H 
ATOM     71  H53 non d ame     -11.651   7.367  72.093  0.00  0.00     0.084 H 
ENDBRANCH  58  61
ENDBRANCH  57  58
ENDBRANCH  55  57
ENDBRANCH  52  55
ENDBRANCH  49  52
ENDBRANCH  47  49
BRANCH  47  72
ATOM     72  C24 non d ame      -8.137   4.808  66.265  0.00  0.00    -0.039 C 
ATOM     73  H35 non d ame      -8.495   4.509  67.250  0.00  0.00     0.036 H 
ATOM     74  H36 non d ame      -7.959   4.053  65.499  0.00  0.00     0.036 H 
BRANCH  72  75
ATOM     75  C25 non d ame      -6.758   5.595  66.482  0.00  0.00    -0.001 C 
ATOM     76  C26 non d ame      -5.666   5.139  65.340  0.00  0.00    -0.035 C 
ATOM     77  C27 non d ame      -4.513   4.784  65.955  0.00  0.00     0.085 C 
ATOM     78  H38 non d ame      -5.992   4.217  64.860  0.00  0.00     0.036 H 
ATOM     79  H39 non d ame      -5.379   5.998  64.734  0.00  0.00     0.036 H 
ATOM     80  N5  non d ame      -4.822   4.645  67.426  0.00  0.00    -0.049 N 
ATOM     81  H40 non d ame      -4.256   3.805  65.552  0.00  0.00     0.075 H 
ATOM     82  H41 non d ame      -3.837   5.627  65.814  0.00  0.00     0.075 H 
ATOM     83  C28 non d ame      -6.259   5.349  67.648  0.00  0.00     0.193 C 
ATOM     84  H42 non d ame      -4.919   3.655  67.606  0.00  0.00     0.280 HD
ATOM     85  H43 non d ame      -4.123   5.181  67.919  0.00  0.00     0.280 HD
ATOM     86  H44 non d ame      -6.326   6.336  68.105  0.00  0.00     0.129 H 
ATOM     87  H37 non d ame      -6.911   6.665  66.623  0.00  0.00     0.046 H 
BRANCH  83  88
ATOM     88  O6  non d ame      -7.105   4.506  68.431  0.00  0.00    -0.369 OA
ATOM     89  H45 non d ame      -7.614   5.042  69.041  0.00  0.00     0.212 HD
ENDBRANCH  83  88
ENDBRANCH  72  75
ENDBRANCH  47  72
ENDBRANCH  45  47
ENDBRANCH   1  43
BRANCH   1  90
ATOM     90  C16 non d ame      -6.409   9.213  64.880  0.00  0.00    -0.035 C 
ATOM     91  H21 non d ame      -6.141  10.269  64.835  0.00  0.00     0.037 H 
ATOM     92  H22 non d ame      -6.548   8.728  65.845  0.00  0.00     0.037 H 
BRANCH  90  93
ATOM     93  C17 non d ame      -5.264   8.438  64.155  0.00  0.00    -0.059 C 
ATOM     94  H23 non d ame      -5.542   7.384  64.132  0.00  0.00     0.038 H 
BRANCH  93  95
ATOM     95  C18 non d ame      -5.070   8.913  62.680  0.00  0.00    -0.073 C 
ATOM     96  H24 non d ame      -4.109   8.558  62.307  0.00  0.00     0.028 H 
ATOM     97  H25 non d ame      -5.871   8.509  62.060  0.00  0.00     0.028 H 
ATOM     98  H26 non d ame      -5.096  10.001  62.642  0.00  0.00     0.028 H 
ENDBRANCH  93  95
BRANCH  93  99
ATOM     99  C19 non d ame      -3.952   8.543  64.938  0.00  0.00    -0.073 C 
ATOM    100  H27 non d ame      -3.316   7.691  64.696  0.00  0.00     0.028 H 
ATOM    101  H28 non d ame      -3.441   9.467  64.668  0.00  0.00     0.028 H 
ATOM    102  H29 non d ame      -4.166   8.544  66.006  0.00  0.00     0.028 H 
ENDBRANCH  93  99
ENDBRANCH  90  93
ENDBRANCH   1  90
TORSDOF 26
ENDMDL
MODEL 18
REMARK VINA RESULT:      -6.3      2.366      6.217
REMARK  26 active torsions:
REMARK  status: ('A' for Active; 'I' for Inactive)
REMARK    1  A    between atoms: C2_2  and  C3_3 
REMARK    2  A    between atoms: C4_6  and  C5_7 
REMARK       I    between atoms: C5_7  and  N2_9 
REMARK    3  A    between atoms: N2_9  and  C6_10 
REMARK    4  A    between atoms: C6_10  and  C7_11 
REMARK    5  A    between atoms: C6_10  and  C8_13 
REMARK       I    between atoms: C7_11  and  N3_14 
REMARK    6  A    between atoms: N3_14  and  C9_15 
REMARK    7  A    between atoms: C9_15  and  C10_16 
REMARK    8  A    between atoms: C9_15  and  C11_18 
REMARK       I    between atoms: C10_16  and  N4_21 
REMARK    9  A    between atoms: C11_18  and  C12_19 
REMARK   10  A    between atoms: C11_18  and  C13_20 
REMARK   11  A    between atoms: N4_21  and  C14_22 
REMARK   12  A    between atoms: C14_22  and  C15_23 
REMARK   13  A    between atoms: C14_22  and  C16_25 
REMARK       I    between atoms: C15_23  and  N6_40 
REMARK   14  A    between atoms: C16_25  and  C17_26 
REMARK   15  A    between atoms: C17_26  and  C18_27 
REMARK   16  A    between atoms: C17_26  and  C19_28 
REMARK   17  A    between atoms: C20_29  and  C21_30 
REMARK   18  A    between atoms: C20_29  and  C24_33 
REMARK   19  A    between atoms: C20_29  and  N6_40 
REMARK   20  A    between atoms: C21_30  and  C22_31 
REMARK   21  A    between atoms: C22_31  and  C23_32 
REMARK   22  A    between atoms: C23_32  and  O8_43 
REMARK   23  A    between atoms: C24_33  and  C25_34 
REMARK   24  A    between atoms: C28_38  and  O6_39 
REMARK   25  A    between atoms: C29_42  and  O8_43 
REMARK   26  A    between atoms: C29_42  and  C35_49 
ROOT
ATOM      1  C14 non d ame     -10.590   9.819  69.393  0.00  0.00     0.089 C 
ATOM      2  H20 non d ame     -10.935   8.988  68.779  0.00  0.00     0.087 H 
ENDROOT
BRANCH   1   3
ATOM      3  N4  non d ame      -9.321  10.273  68.844  0.00  0.00    -0.346 N 
ATOM      4  C10 non d ame      -9.132  10.383  67.352  0.00  0.00     0.241 C 
ATOM      5  O4  non d ame     -10.017  10.098  66.613  0.00  0.00    -0.271 OA
ATOM      6  H19 non d ame      -8.580  10.507  69.490  0.00  0.00     0.163 HD
BRANCH   4   7
ATOM      7  C9  non d ame      -7.814  10.859  66.801  0.00  0.00     0.092 C 
ATOM      8  H11 non d ame      -7.967  11.794  66.261  0.00  0.00     0.088 H 
BRANCH   7   9
ATOM      9  N3  non d ame      -6.896  11.144  67.907  0.00  0.00    -0.346 N 
ATOM     10  C7  non d ame      -6.356  12.471  68.074  0.00  0.00     0.240 C 
ATOM     11  O3  non d ame      -6.649  13.322  67.325  0.00  0.00    -0.271 OA
ATOM     12  H10 non d ame      -6.632  10.420  68.560  0.00  0.00     0.163 HD
BRANCH  10  13
ATOM     13  C6  non d ame      -5.376  12.766  69.251  0.00  0.00     0.086 C 
ATOM     14  H6  non d ame      -4.332  12.779  68.939  0.00  0.00     0.086 H 
BRANCH  13  15
ATOM     15  N2  non d ame      -5.667  14.087  69.785  0.00  0.00    -0.343 N 
ATOM     16  C5  non d ame      -4.684  15.161  69.626  0.00  0.00     0.273 C 
ATOM     17  O2  non d ame      -3.662  14.952  69.069  0.00  0.00    -0.266 OA
ATOM     18  H5  non d ame      -6.541  14.256  70.261  0.00  0.00     0.163 HD
BRANCH  16  19
ATOM     19  C4  non d ame      -4.978  16.562  70.183  0.00  0.00     0.154 A 
ATOM     20  C1  non d ame      -5.423  17.708  69.450  0.00  0.00    -0.017 A 
ATOM     21  C2  non d ame      -5.542  18.734  70.415  0.00  0.00     0.077 A 
ATOM     22  H1  non d ame      -5.627  17.785  68.382  0.00  0.00     0.091 H 
ATOM     23  O1  non d ame      -5.205  18.225  71.565  0.00  0.00    -0.218 OA
ATOM     24  N1  non d ame      -4.871  16.959  71.454  0.00  0.00    -0.123 NA
BRANCH  21  25
ATOM     25  C3  non d ame      -5.986  20.167  70.157  0.00  0.00    -0.029 C 
ATOM     26  H2  non d ame      -5.255  20.666  69.520  0.00  0.00     0.036 H 
ATOM     27  H3  non d ame      -6.957  20.163  69.661  0.00  0.00     0.036 H 
ATOM     28  H4  non d ame      -6.065  20.700  71.105  0.00  0.00     0.036 H 
ENDBRANCH  21  25
ENDBRANCH  16  19
ENDBRANCH  13  15
BRANCH  13  29
ATOM     29  C8  non d ame      -5.550  11.725  70.327  0.00  0.00    -0.049 C 
ATOM     30  H7  non d ame      -4.786  11.861  71.092  0.00  0.00     0.030 H 
ATOM     31  H8  non d ame      -6.538  11.831  70.778  0.00  0.00     0.030 H 
ATOM     32  H9  non d ame      -5.454  10.732  69.891  0.00  0.00     0.030 H 
ENDBRANCH  13  29
ENDBRANCH  10  13
ENDBRANCH   7   9
BRANCH   7  33
ATOM     33  C11 non d ame      -7.201   9.753  65.892  0.00  0.00    -0.033 C 
ATOM     34  H12 non d ame      -7.963   9.463  65.168  0.00  0.00     0.042 H 
BRANCH  33  35
ATOM     35  C12 non d ame      -5.974  10.291  65.092  0.00  0.00    -0.071 C 
ATOM     36  H13 non d ame      -6.136  10.126  64.026  0.00  0.00     0.028 H 
ATOM     37  H14 non d ame      -5.856  11.358  65.280  0.00  0.00     0.028 H 
ATOM     38  H15 non d ame      -5.075   9.764  65.410  0.00  0.00     0.028 H 
ENDBRANCH  33  35
BRANCH  33  39
ATOM     39  C13 non d ame      -6.823   8.489  66.729  0.00  0.00    -0.071 C 
ATOM     40  H16 non d ame      -5.982   8.723  67.380  0.00  0.00     0.028 H 
ATOM     41  H17 non d ame      -7.677   8.183  67.332  0.00  0.00     0.028 H 
ATOM     42  H18 non d ame      -6.545   7.679  66.055  0.00  0.00     0.028 H 
ENDBRANCH  33  39
ENDBRANCH   7  33
ENDBRANCH   4   7
ENDBRANCH   1   3
BRANCH   1  43
ATOM     43  C15 non d ame     -11.588  11.012  69.383  0.00  0.00     0.240 C 
ATOM     44  O5  non d ame     -12.743  10.815  69.179  0.00  0.00    -0.271 OA
ATOM     45  N6  non d ame     -11.107  12.400  69.638  0.00  0.00    -0.355 N 
ATOM     46  H46 non d ame     -10.129  12.579  69.816  0.00  0.00     0.162 HD
BRANCH  45  47
ATOM     47  C20 non d ame     -12.068  13.523  69.626  0.00  0.00     0.013 C 
ATOM     48  H30 non d ame     -12.854  13.284  68.910  0.00  0.00     0.072 H 
BRANCH  47  49
ATOM     49  C21 non d ame     -11.355  14.788  69.206  0.00  0.00    -0.038 C 
ATOM     50  H31 non d ame     -11.975  15.231  68.426  0.00  0.00     0.036 H 
ATOM     51  H32 non d ame     -11.164  15.338  70.129  0.00  0.00     0.036 H 
BRANCH  49  52
ATOM     52  C22 non d ame      -9.976  14.516  68.568  0.00  0.00     0.018 C 
ATOM     53  H33 non d ame      -9.383  15.413  68.750  0.00  0.00     0.048 H 
ATOM     54  H34 non d ame      -9.650  13.556  68.970  0.00  0.00     0.048 H 
BRANCH  52  55
ATOM     55  C23 non d ame     -10.024  14.341  67.025  0.00  0.00     0.259 C 
ATOM     56  O7  non d ame     -10.597  13.420  66.540  0.00  0.00    -0.265 OA
BRANCH  55  57
ATOM     57  O8  non d ame      -9.364  15.289  66.195  0.00  0.00    -0.317 OA
BRANCH  57  58
ATOM     58  C29 non d ame     -10.189  16.385  65.790  0.00  0.00     0.052 C 
ATOM     59  H47 non d ame     -10.043  16.484  64.715  0.00  0.00     0.082 H 
ATOM     60  H48 non d ame     -11.181  16.170  66.188  0.00  0.00     0.082 H 
BRANCH  58  61
ATOM     61  C35 non d ame      -9.652  17.668  66.479  0.00  0.00    -0.034 A 
ATOM     62  C30 non d ame      -8.344  18.083  66.255  0.00  0.00    -0.075 A 
ATOM     63  C31 non d ame      -7.861  19.236  66.873  0.00  0.00    -0.082 A 
ATOM     64  H49 non d ame      -7.697  17.506  65.595  0.00  0.00     0.084 H 
ATOM     65  C32 non d ame      -8.693  19.973  67.721  0.00  0.00    -0.083 A 
ATOM     66  H50 non d ame      -6.836  19.559  66.694  0.00  0.00     0.083 H 
ATOM     67  C33 non d ame      -9.997  19.553  67.944  0.00  0.00    -0.082 A 
ATOM     68  H51 non d ame      -8.324  20.875  68.208  0.00  0.00     0.083 H 
ATOM     69  C34 non d ame     -10.484  18.403  67.326  0.00  0.00    -0.075 A 
ATOM     70  H52 non d ame     -10.642  20.129  68.608  0.00  0.00     0.083 H 
ATOM     71  H53 non d ame     -11.510  18.080  67.506  0.00  0.00     0.084 H 
ENDBRANCH  58  61
ENDBRANCH  57  58
ENDBRANCH  55  57
ENDBRANCH  52  55
ENDBRANCH  49  52
ENDBRANCH  47  49
BRANCH  47  72
ATOM     72  C24 non d ame     -12.660  13.710  71.021  0.00  0.00    -0.039 C 
ATOM     73  H35 non d ame     -13.668  13.299  70.967  0.00  0.00     0.036 H 
ATOM     74  H36 non d ame     -11.932  13.276  71.707  0.00  0.00     0.036 H 
BRANCH  72  75
ATOM     75  C25 non d ame     -12.802  15.260  71.402  0.00  0.00    -0.001 C 
ATOM     76  C26 non d ame     -11.722  15.649  72.579  0.00  0.00    -0.035 C 
ATOM     77  C27 non d ame     -12.378  16.274  73.585  0.00  0.00     0.085 C 
ATOM     78  H38 non d ame     -11.339  14.743  73.049  0.00  0.00     0.036 H 
ATOM     79  H39 non d ame     -11.029  16.408  72.216  0.00  0.00     0.036 H 
ATOM     80  N5  non d ame     -13.854  16.057  73.351  0.00  0.00    -0.049 N 
ATOM     81  H40 non d ame     -12.082  15.752  74.496  0.00  0.00     0.075 H 
ATOM     82  H41 non d ame     -12.153  17.333  73.466  0.00  0.00     0.075 H 
ATOM     83  C28 non d ame     -13.990  15.529  71.831  0.00  0.00     0.193 C 
ATOM     84  H42 non d ame     -14.137  15.315  73.976  0.00  0.00     0.280 HD
ATOM     85  H43 non d ame     -14.291  16.965  73.416  0.00  0.00     0.280 HD
ATOM     86  H44 non d ame     -14.340  16.196  71.043  0.00  0.00     0.129 H 
ATOM     87  H37 non d ame     -12.827  15.901  70.521  0.00  0.00     0.046 H 
BRANCH  83  88
ATOM     88  O6  non d ame     -14.852  14.391  71.781  0.00  0.00    -0.369 OA
ATOM     89  H45 non d ame     -14.957  14.110  70.870  0.00  0.00     0.212 HD
ENDBRANCH  83  88
ENDBRANCH  72  75
ENDBRANCH  47  72
ENDBRANCH  45  47
ENDBRANCH   1  43
BRANCH   1  90
ATOM     90  C16 non d ame     -10.372   9.347  70.822  0.00  0.00    -0.035 C 
ATOM     91  H21 non d ame      -9.296   9.410  70.986  0.00  0.00     0.037 H 
ATOM     92  H22 non d ame     -11.051   9.944  71.430  0.00  0.00     0.037 H 
BRANCH  90  93
ATOM     93  C17 non d ame     -10.766   7.854  71.055  0.00  0.00    -0.059 C 
ATOM     94  H23 non d ame      -9.969   7.388  71.633  0.00  0.00     0.038 H 
BRANCH  93  95
ATOM     95  C18 non d ame     -12.091   7.713  71.870  0.00  0.00    -0.073 C 
ATOM     96  H24 non d ame     -12.929   8.056  71.263  0.00  0.00     0.028 H 
ATOM     97  H25 non d ame     -12.243   6.668  72.139  0.00  0.00     0.028 H 
ATOM     98  H26 non d ame     -12.027   8.315  72.776  0.00  0.00     0.028 H 
ENDBRANCH  93  95
BRANCH  93  99
ATOM     99  C19 non d ame     -10.861   7.100  69.725  0.00  0.00    -0.073 C 
ATOM    100  H27 non d ame     -11.181   6.075  69.912  0.00  0.00     0.028 H 
ATOM    101  H28 non d ame     -11.586   7.595  69.078  0.00  0.00     0.028 H 
ATOM    102  H29 non d ame      -9.886   7.094  69.241  0.00  0.00     0.028 H 
ENDBRANCH  93  99
ENDBRANCH  90  93
ENDBRANCH   1  90
TORSDOF 26
ENDMDL
MODEL 19
REMARK VINA RESULT:      -6.3      2.726      7.884
REMARK  26 active torsions:
REMARK  status: ('A' for Active; 'I' for Inactive)
REMARK    1  A    between atoms: C2_2  and  C3_3 
REMARK    2  A    between atoms: C4_6  and  C5_7 
REMARK       I    between atoms: C5_7  and  N2_9 
REMARK    3  A    between atoms: N2_9  and  C6_10 
REMARK    4  A    between atoms: C6_10  and  C7_11 
REMARK    5  A    between atoms: C6_10  and  C8_13 
REMARK       I    between atoms: C7_11  and  N3_14 
REMARK    6  A    between atoms: N3_14  and  C9_15 
REMARK    7  A    between atoms: C9_15  and  C10_16 
REMARK    8  A    between atoms: C9_15  and  C11_18 
REMARK       I    between atoms: C10_16  and  N4_21 
REMARK    9  A    between atoms: C11_18  and  C12_19 
REMARK   10  A    between atoms: C11_18  and  C13_20 
REMARK   11  A    between atoms: N4_21  and  C14_22 
REMARK   12  A    between atoms: C14_22  and  C15_23 
REMARK   13  A    between atoms: C14_22  and  C16_25 
REMARK       I    between atoms: C15_23  and  N6_40 
REMARK   14  A    between atoms: C16_25  and  C17_26 
REMARK   15  A    between atoms: C17_26  and  C18_27 
REMARK   16  A    between atoms: C17_26  and  C19_28 
REMARK   17  A    between atoms: C20_29  and  C21_30 
REMARK   18  A    between atoms: C20_29  and  C24_33 
REMARK   19  A    between atoms: C20_29  and  N6_40 
REMARK   20  A    between atoms: C21_30  and  C22_31 
REMARK   21  A    between atoms: C22_31  and  C23_32 
REMARK   22  A    between atoms: C23_32  and  O8_43 
REMARK   23  A    between atoms: C24_33  and  C25_34 
REMARK   24  A    between atoms: C28_38  and  O6_39 
REMARK   25  A    between atoms: C29_42  and  O8_43 
REMARK   26  A    between atoms: C29_42  and  C35_49 
ROOT
ATOM      1  C14 non d ame      -5.196  17.353  67.449  0.00  0.00     0.089 C 
ATOM      2  H20 non d ame      -4.895  17.642  66.442  0.00  0.00     0.087 H 
ENDROOT
BRANCH   1   3
ATOM      3  N4  non d ame      -6.647  17.448  67.517  0.00  0.00    -0.346 N 
ATOM      4  C10 non d ame      -7.437  17.911  66.318  0.00  0.00     0.241 C 
ATOM      5  O4  non d ame      -6.882  18.203  65.310  0.00  0.00    -0.271 OA
ATOM      6  H19 non d ame      -7.099  17.197  68.385  0.00  0.00     0.163 HD
BRANCH   4   7
ATOM      7  C9  non d ame      -8.938  17.998  66.405  0.00  0.00     0.092 C 
ATOM      8  H11 non d ame      -9.347  18.147  65.405  0.00  0.00     0.088 H 
BRANCH   7   9
ATOM      9  N3  non d ame      -9.474  16.729  66.906  0.00  0.00    -0.346 N 
ATOM     10  C7  non d ame     -10.492  16.031  66.161  0.00  0.00     0.240 C 
ATOM     11  O3  non d ame     -10.893  16.478  65.156  0.00  0.00    -0.271 OA
ATOM     12  H10 non d ame      -9.139  16.333  67.772  0.00  0.00     0.163 HD
BRANCH  10  13
ATOM     13  C6  non d ame     -11.061  14.683  66.702  0.00  0.00     0.086 C 
ATOM     14  H6  non d ame     -10.279  13.984  66.999  0.00  0.00     0.086 H 
BRANCH  13  15
ATOM     15  N2  non d ame     -11.855  14.950  67.890  0.00  0.00    -0.343 N 
ATOM     16  C5  non d ame     -11.217  14.906  69.208  0.00  0.00     0.273 C 
ATOM     17  O2  non d ame     -10.066  14.653  69.301  0.00  0.00    -0.266 OA
ATOM     18  H5  non d ame     -12.837  15.163  67.801  0.00  0.00     0.163 HD
BRANCH  16  19
ATOM     19  C4  non d ame     -12.043  15.187  70.472  0.00  0.00     0.154 A 
ATOM     20  C1  non d ame     -11.548  15.410  71.797  0.00  0.00    -0.017 A 
ATOM     21  C2  non d ame     -12.701  15.619  72.586  0.00  0.00     0.077 A 
ATOM     22  H1  non d ame     -10.511  15.418  72.134  0.00  0.00     0.091 H 
ATOM     23  O1  non d ame     -13.733  15.528  71.797  0.00  0.00    -0.218 OA
ATOM     24  N1  non d ame     -13.373  15.275  70.559  0.00  0.00    -0.123 NA
BRANCH  21  25
ATOM     25  C3  non d ame     -12.731  15.903  74.081  0.00  0.00    -0.029 C 
ATOM     26  H2  non d ame     -13.475  16.672  74.291  0.00  0.00     0.036 H 
ATOM     27  H3  non d ame     -12.990  14.991  74.618  0.00  0.00     0.036 H 
ATOM     28  H4  non d ame     -11.750  16.249  74.406  0.00  0.00     0.036 H 
ENDBRANCH  21  25
ENDBRANCH  16  19
ENDBRANCH  13  15
BRANCH  13  29
ATOM     29  C8  non d ame     -11.917  14.035  65.644  0.00  0.00    -0.049 C 
ATOM     30  H7  non d ame     -12.349  14.804  65.004  0.00  0.00     0.030 H 
ATOM     31  H8  non d ame     -11.303  13.363  65.042  0.00  0.00     0.030 H 
ATOM     32  H9  non d ame     -12.716  13.468  66.120  0.00  0.00     0.030 H 
ENDBRANCH  13  29
ENDBRANCH  10  13
ENDBRANCH   7   9
BRANCH   7  33
ATOM     33  C11 non d ame      -9.336  19.147  67.377  0.00  0.00    -0.033 C 
ATOM     34  H12 non d ame      -8.462  19.786  67.506  0.00  0.00     0.042 H 
BRANCH  33  35
ATOM     35  C12 non d ame     -10.477  20.028  66.780  0.00  0.00    -0.071 C 
ATOM     36  H13 non d ame     -11.317  19.392  66.499  0.00  0.00     0.028 H 
ATOM     37  H14 non d ame     -10.804  20.753  67.524  0.00  0.00     0.028 H 
ATOM     38  H15 non d ame     -10.107  20.553  65.899  0.00  0.00     0.028 H 
ENDBRANCH  33  35
BRANCH  33  39
ATOM     39  C13 non d ame      -9.732  18.581  68.779  0.00  0.00    -0.071 C 
ATOM     40  H16 non d ame     -10.690  18.068  68.706  0.00  0.00     0.028 H 
ATOM     41  H17 non d ame      -8.968  17.881  69.117  0.00  0.00     0.028 H 
ATOM     42  H18 non d ame      -9.812  19.402  69.491  0.00  0.00     0.028 H 
ENDBRANCH  33  39
ENDBRANCH   7  33
ENDBRANCH   4   7
ENDBRANCH   1   3
BRANCH   1  43
ATOM     43  C15 non d ame      -4.780  15.894  67.791  0.00  0.00     0.240 C 
ATOM     44  O5  non d ame      -4.133  15.266  67.014  0.00  0.00    -0.271 OA
ATOM     45  N6  non d ame      -5.177  15.281  69.090  0.00  0.00    -0.355 N 
ATOM     46  H46 non d ame      -5.722  15.806  69.759  0.00  0.00     0.162 HD
BRANCH  45  47
ATOM     47  C20 non d ame      -4.772  13.893  69.401  0.00  0.00     0.013 C 
ATOM     48  H30 non d ame      -4.118  13.548  68.600  0.00  0.00     0.072 H 
BRANCH  47  49
ATOM     49  C21 non d ame      -6.002  13.017  69.475  0.00  0.00    -0.038 C 
ATOM     50  H31 non d ame      -5.733  12.186  70.127  0.00  0.00     0.036 H 
ATOM     51  H32 non d ame      -6.821  13.684  69.750  0.00  0.00     0.036 H 
BRANCH  49  52
ATOM     52  C22 non d ame      -6.382  12.400  68.112  0.00  0.00     0.018 C 
ATOM     53  H33 non d ame      -5.521  12.565  67.463  0.00  0.00     0.048 H 
ATOM     54  H34 non d ame      -6.713  11.384  68.330  0.00  0.00     0.048 H 
BRANCH  52  55
ATOM     55  C23 non d ame      -7.581  13.103  67.418  0.00  0.00     0.259 C 
ATOM     56  O7  non d ame      -7.615  14.288  67.330  0.00  0.00    -0.265 OA
BRANCH  55  57
ATOM     57  O8  non d ame      -8.647  12.317  66.901  0.00  0.00    -0.317 OA
BRANCH  57  58
ATOM     58  C29 non d ame      -8.613  10.947  67.311  0.00  0.00     0.052 C 
ATOM     59  H47 non d ame      -8.872  10.367  66.426  0.00  0.00     0.082 H 
ATOM     60  H48 non d ame      -7.644  10.806  67.790  0.00  0.00     0.082 H 
BRANCH  58  61
ATOM     61  C35 non d ame      -9.722  10.739  68.377  0.00  0.00    -0.034 A 
ATOM     62  C30 non d ame      -9.486   9.921  69.477  0.00  0.00    -0.075 A 
ATOM     63  C31 non d ame     -10.482   9.734  70.434  0.00  0.00    -0.082 A 
ATOM     64  H49 non d ame      -8.522   9.427  69.589  0.00  0.00     0.084 H 
ATOM     65  C32 non d ame     -11.719  10.367  70.287  0.00  0.00    -0.083 A 
ATOM     66  H50 non d ame     -10.293   9.093  71.296  0.00  0.00     0.083 H 
ATOM     67  C33 non d ame     -11.952  11.179  69.186  0.00  0.00    -0.082 A 
ATOM     68  H51 non d ame     -12.503  10.226  71.031  0.00  0.00     0.083 H 
ATOM     69  C34 non d ame     -10.958  11.371  68.228  0.00  0.00    -0.075 A 
ATOM     70  H52 non d ame     -12.919  11.670  69.073  0.00  0.00     0.083 H 
ATOM     71  H53 non d ame     -11.148  12.012  67.366  0.00  0.00     0.084 H 
ENDBRANCH  58  61
ENDBRANCH  57  58
ENDBRANCH  55  57
ENDBRANCH  52  55
ENDBRANCH  49  52
ENDBRANCH  47  49
BRANCH  47  72
ATOM     72  C24 non d ame      -4.039  13.857  70.739  0.00  0.00    -0.039 C 
ATOM     73  H35 non d ame      -3.119  13.304  70.552  0.00  0.00     0.036 H 
ATOM     74  H36 non d ame      -3.992  14.894  71.073  0.00  0.00     0.036 H 
BRANCH  72  75
ATOM     75  C25 non d ame      -4.863  13.042  71.845  0.00  0.00    -0.001 C 
ATOM     76  C26 non d ame      -5.233  14.028  73.109  0.00  0.00    -0.035 C 
ATOM     77  C27 non d ame      -4.847  13.426  74.259  0.00  0.00     0.085 C 
ATOM     78  H38 non d ame      -4.617  14.927  73.073  0.00  0.00     0.036 H 
ATOM     79  H39 non d ame      -6.314  14.111  73.214  0.00  0.00     0.036 H 
ATOM     80  N5  non d ame      -3.956  12.269  73.875  0.00  0.00    -0.049 N 
ATOM     81  H40 non d ame      -4.254  14.169  74.793  0.00  0.00     0.075 H 
ATOM     82  H41 non d ame      -5.762  13.036  74.704  0.00  0.00     0.075 H 
ATOM     83  C28 non d ame      -4.181  12.041  72.293  0.00  0.00     0.193 C 
ATOM     84  H42 non d ame      -3.006  12.579  74.023  0.00  0.00     0.280 HD
ATOM     85  H43 non d ame      -4.306  11.462  74.370  0.00  0.00     0.280 HD
ATOM     86  H44 non d ame      -4.790  11.210  71.935  0.00  0.00     0.129 H 
ATOM     87  H37 non d ame      -5.680  12.467  71.410  0.00  0.00     0.046 H 
BRANCH  83  88
ATOM     88  O6  non d ame      -2.923  11.906  71.631  0.00  0.00    -0.369 OA
ATOM     89  H45 non d ame      -2.597  11.011  71.743  0.00  0.00     0.212 HD
ENDBRANCH  83  88
ENDBRANCH  72  75
ENDBRANCH  47  72
ENDBRANCH  45  47
ENDBRANCH   1  43
BRANCH   1  90
ATOM     90  C16 non d ame      -4.587  18.310  68.462  0.00  0.00    -0.035 C 
ATOM     91  H21 non d ame      -3.878  17.710  69.034  0.00  0.00     0.037 H 
ATOM     92  H22 non d ame      -4.236  19.161  67.881  0.00  0.00     0.037 H 
BRANCH  90  93
ATOM     93  C17 non d ame      -5.619  18.872  69.491  0.00  0.00    -0.059 C 
ATOM     94  H23 non d ame      -6.582  18.406  69.282  0.00  0.00     0.038 H 
BRANCH  93  95
ATOM     95  C18 non d ame      -5.232  18.526  70.964  0.00  0.00    -0.073 C 
ATOM     96  H24 non d ame      -5.953  18.979  71.645  0.00  0.00     0.028 H 
ATOM     97  H25 non d ame      -5.238  17.444  71.097  0.00  0.00     0.028 H 
ATOM     98  H26 non d ame      -4.236  18.913  71.179  0.00  0.00     0.028 H 
ENDBRANCH  93  95
BRANCH  93  99
ATOM     99  C19 non d ame      -5.798  20.382  69.315  0.00  0.00    -0.073 C 
ATOM    100  H27 non d ame      -5.689  20.640  68.261  0.00  0.00     0.028 H 
ATOM    101  H28 non d ame      -6.790  20.673  69.660  0.00  0.00     0.028 H 
ATOM    102  H29 non d ame      -5.042  20.908  69.897  0.00  0.00     0.028 H 
ENDBRANCH  93  99
ENDBRANCH  90  93
ENDBRANCH   1  90
TORSDOF 26
ENDMDL
MODEL 20
REMARK VINA RESULT:      -6.2      3.683      9.141
REMARK  26 active torsions:
REMARK  status: ('A' for Active; 'I' for Inactive)
REMARK    1  A    between atoms: C2_2  and  C3_3 
REMARK    2  A    between atoms: C4_6  and  C5_7 
REMARK       I    between atoms: C5_7  and  N2_9 
REMARK    3  A    between atoms: N2_9  and  C6_10 
REMARK    4  A    between atoms: C6_10  and  C7_11 
REMARK    5  A    between atoms: C6_10  and  C8_13 
REMARK       I    between atoms: C7_11  and  N3_14 
REMARK    6  A    between atoms: N3_14  and  C9_15 
REMARK    7  A    between atoms: C9_15  and  C10_16 
REMARK    8  A    between atoms: C9_15  and  C11_18 
REMARK       I    between atoms: C10_16  and  N4_21 
REMARK    9  A    between atoms: C11_18  and  C12_19 
REMARK   10  A    between atoms: C11_18  and  C13_20 
REMARK   11  A    between atoms: N4_21  and  C14_22 
REMARK   12  A    between atoms: C14_22  and  C15_23 
REMARK   13  A    between atoms: C14_22  and  C16_25 
REMARK       I    between atoms: C15_23  and  N6_40 
REMARK   14  A    between atoms: C16_25  and  C17_26 
REMARK   15  A    between atoms: C17_26  and  C18_27 
REMARK   16  A    between atoms: C17_26  and  C19_28 
REMARK   17  A    between atoms: C20_29  and  C21_30 
REMARK   18  A    between atoms: C20_29  and  C24_33 
REMARK   19  A    between atoms: C20_29  and  N6_40 
REMARK   20  A    between atoms: C21_30  and  C22_31 
REMARK   21  A    between atoms: C22_31  and  C23_32 
REMARK   22  A    between atoms: C23_32  and  O8_43 
REMARK   23  A    between atoms: C24_33  and  C25_34 
REMARK   24  A    between atoms: C28_38  and  O6_39 
REMARK   25  A    between atoms: C29_42  and  O8_43 
REMARK   26  A    between atoms: C29_42  and  C35_49 
ROOT
ATOM      1  C14 non d ame      -8.513   8.240  68.510  0.00  0.00     0.089 C 
ATOM      2  H20 non d ame      -9.137   7.387  68.240  0.00  0.00     0.087 H 
ENDROOT
BRANCH   1   3
ATOM      3  N4  non d ame      -8.919   9.362  67.678  0.00  0.00    -0.346 N 
ATOM      4  C10 non d ame     -10.047   9.207  66.688  0.00  0.00     0.241 C 
ATOM      5  O4  non d ame     -10.611   8.168  66.578  0.00  0.00    -0.271 OA
ATOM      6  H19 non d ame      -8.425  10.237  67.785  0.00  0.00     0.163 HD
BRANCH   4   7
ATOM      7  C9  non d ame     -10.458  10.380  65.838  0.00  0.00     0.092 C 
ATOM      8  H11 non d ame     -11.543  10.389  65.739  0.00  0.00     0.088 H 
BRANCH   7   9
ATOM      9  N3  non d ame     -10.076  11.627  66.508  0.00  0.00    -0.346 N 
ATOM     10  C7  non d ame     -11.088  12.582  66.887  0.00  0.00     0.240 C 
ATOM     11  O3  non d ame     -12.215  12.364  66.660  0.00  0.00    -0.271 OA
ATOM     12  H10 non d ame      -9.107  11.830  66.709  0.00  0.00     0.163 HD
BRANCH  10  13
ATOM     13  C6  non d ame     -10.674  13.908  67.597  0.00  0.00     0.086 C 
ATOM     14  H6  non d ame     -11.166  14.784  67.174  0.00  0.00     0.086 H 
BRANCH  13  15
ATOM     15  N2  non d ame     -11.073  13.840  68.993  0.00  0.00    -0.343 N 
ATOM     16  C5  non d ame     -11.762  14.980  69.602  0.00  0.00     0.273 C 
ATOM     17  O2  non d ame     -11.989  15.947  68.962  0.00  0.00    -0.266 OA
ATOM     18  H5  non d ame     -10.873  13.011  69.534  0.00  0.00     0.163 HD
BRANCH  16  19
ATOM     19  C4  non d ame     -12.192  14.921  71.077  0.00  0.00     0.154 A 
ATOM     20  C1  non d ame     -11.778  15.793  72.133  0.00  0.00    -0.017 A 
ATOM     21  C2  non d ame     -12.450  15.319  73.281  0.00  0.00     0.077 A 
ATOM     22  H1  non d ame     -11.094  16.641  72.076  0.00  0.00     0.091 H 
ATOM     23  O1  non d ame     -13.166  14.294  72.916  0.00  0.00    -0.218 OA
ATOM     24  N1  non d ame     -13.030  14.043  71.634  0.00  0.00    -0.123 NA
BRANCH  21  25
ATOM     25  C3  non d ame     -12.357  15.900  74.685  0.00  0.00    -0.029 C 
ATOM     26  H2  non d ame     -13.309  16.363  74.952  0.00  0.00     0.036 H 
ATOM     27  H3  non d ame     -12.130  15.103  75.393  0.00  0.00     0.036 H 
ATOM     28  H4  non d ame     -11.567  16.650  74.717  0.00  0.00     0.036 H 
ENDBRANCH  21  25
ENDBRANCH  16  19
ENDBRANCH  13  15
BRANCH  13  29
ATOM     29  C8  non d ame      -9.181  14.092  67.495  0.00  0.00    -0.049 C 
ATOM     30  H7  non d ame      -8.679  13.193  67.853  0.00  0.00     0.030 H 
ATOM     31  H8  non d ame      -8.907  14.272  66.455  0.00  0.00     0.030 H 
ATOM     32  H9  non d ame      -8.877  14.943  68.104  0.00  0.00     0.030 H 
ENDBRANCH  13  29
ENDBRANCH  10  13
ENDBRANCH   7   9
BRANCH   7  33
ATOM     33  C11 non d ame      -9.744  10.296  64.457  0.00  0.00    -0.033 C 
ATOM     34  H12 non d ame     -10.026   9.348  63.999  0.00  0.00     0.042 H 
BRANCH  33  35
ATOM     35  C12 non d ame     -10.218  11.436  63.503  0.00  0.00    -0.071 C 
ATOM     36  H13 non d ame      -9.351  11.892  63.024  0.00  0.00     0.028 H 
ATOM     37  H14 non d ame     -10.877  11.022  62.740  0.00  0.00     0.028 H 
ATOM     38  H15 non d ame     -10.756  12.190  64.077  0.00  0.00     0.028 H 
ENDBRANCH  33  35
BRANCH  33  39
ATOM     39  C13 non d ame      -8.192  10.309  64.629  0.00  0.00    -0.071 C 
ATOM     40  H16 non d ame      -7.894   9.504  65.300  0.00  0.00     0.028 H 
ATOM     41  H17 non d ame      -7.717  10.167  63.657  0.00  0.00     0.028 H 
ATOM     42  H18 non d ame      -7.881  11.266  65.048  0.00  0.00     0.028 H 
ENDBRANCH  33  39
ENDBRANCH   7  33
ENDBRANCH   4   7
ENDBRANCH   1   3
BRANCH   1  43
ATOM     43  C15 non d ame      -8.684   8.643  70.003  0.00  0.00     0.240 C 
ATOM     44  O5  non d ame      -8.296   9.704  70.377  0.00  0.00    -0.271 OA
ATOM     45  N6  non d ame      -9.339   7.712  70.965  0.00  0.00    -0.355 N 
ATOM     46  H46 non d ame      -9.676   6.811  70.659  0.00  0.00     0.162 HD
BRANCH  45  47
ATOM     47  C20 non d ame      -9.495   8.112  72.381  0.00  0.00     0.013 C 
ATOM     48  H30 non d ame      -9.412   9.197  72.434  0.00  0.00     0.072 H 
BRANCH  47  49
ATOM     49  C21 non d ame      -8.402   7.470  73.205  0.00  0.00    -0.038 C 
ATOM     50  H31 non d ame      -7.671   8.257  73.390  0.00  0.00     0.036 H 
ATOM     51  H32 non d ame      -8.910   6.988  74.042  0.00  0.00     0.036 H 
BRANCH  49  52
ATOM     52  C22 non d ame      -7.657   6.351  72.445  0.00  0.00     0.018 C 
ATOM     53  H33 non d ame      -7.923   6.479  71.395  0.00  0.00     0.048 H 
ATOM     54  H34 non d ame      -6.614   6.427  72.757  0.00  0.00     0.048 H 
BRANCH  52  55
ATOM     55  C23 non d ame      -8.117   4.918  72.832  0.00  0.00     0.259 C 
ATOM     56  O7  non d ame      -8.196   4.598  73.973  0.00  0.00    -0.265 OA
BRANCH  55  57
ATOM     57  O8  non d ame      -8.431   3.986  71.805  0.00  0.00    -0.317 OA
BRANCH  57  58
ATOM     58  C29 non d ame      -9.730   4.165  71.231  0.00  0.00     0.052 C 
ATOM     59  H47 non d ame     -10.328   3.327  71.586  0.00  0.00     0.082 H 
ATOM     60  H48 non d ame     -10.022   5.186  71.478  0.00  0.00     0.082 H 
BRANCH  58  61
ATOM     61  C35 non d ame      -9.592   4.054  69.689  0.00  0.00    -0.034 A 
ATOM     62  C30 non d ame      -8.872   3.004  69.129  0.00  0.00    -0.075 A 
ATOM     63  C31 non d ame      -8.748   2.903  67.744  0.00  0.00    -0.082 A 
ATOM     64  H49 non d ame      -8.405   2.260  69.774  0.00  0.00     0.084 H 
ATOM     65  C32 non d ame      -9.346   3.859  66.919  0.00  0.00    -0.083 A 
ATOM     66  H50 non d ame      -8.185   2.079  67.308  0.00  0.00     0.083 H 
ATOM     67  C33 non d ame     -10.061   4.908  67.482  0.00  0.00    -0.082 A 
ATOM     68  H51 non d ame      -9.254   3.788  65.835  0.00  0.00     0.083 H 
ATOM     69  C34 non d ame     -10.189   5.010  68.866  0.00  0.00    -0.075 A 
ATOM     70  H52 non d ame     -10.524   5.653  66.836  0.00  0.00     0.083 H 
ATOM     71  H53 non d ame     -10.754   5.836  69.302  0.00  0.00     0.084 H 
ENDBRANCH  58  61
ENDBRANCH  57  58
ENDBRANCH  55  57
ENDBRANCH  52  55
ENDBRANCH  49  52
ENDBRANCH  47  49
BRANCH  47  72
ATOM     72  C24 non d ame     -10.858   7.657  72.898  0.00  0.00    -0.039 C 
ATOM     73  H35 non d ame     -10.764   6.583  73.059  0.00  0.00     0.036 H 
ATOM     74  H36 non d ame     -11.085   8.316  73.737  0.00  0.00     0.036 H 
BRANCH  72  75
ATOM     75  C25 non d ame     -12.008   7.872  71.804  0.00  0.00    -0.001 C 
ATOM     76  C26 non d ame     -12.926   9.176  72.204  0.00  0.00    -0.035 C 
ATOM     77  C27 non d ame     -14.231   8.814  72.185  0.00  0.00     0.085 C 
ATOM     78  H38 non d ame     -12.753   9.449  73.245  0.00  0.00     0.036 H 
ATOM     79  H39 non d ame     -12.860   9.934  71.423  0.00  0.00     0.036 H 
ATOM     80  N5  non d ame     -14.271   7.306  72.128  0.00  0.00    -0.049 N 
ATOM     81  H40 non d ame     -14.640   9.145  73.141  0.00  0.00     0.075 H 
ATOM     82  H41 non d ame     -14.631   9.214  71.253  0.00  0.00     0.075 H 
ATOM     83  C28 non d ame     -12.778   6.838  71.727  0.00  0.00     0.193 C 
ATOM     84  H42 non d ame     -14.465   6.990  73.068  0.00  0.00     0.280 HD
ATOM     85  H43 non d ame     -14.897   7.064  71.375  0.00  0.00     0.280 HD
ATOM     86  H44 non d ame     -12.558   6.501  70.713  0.00  0.00     0.129 H 
ATOM     87  H37 non d ame     -11.623   7.831  70.786  0.00  0.00     0.046 H 
BRANCH  83  88
ATOM     88  O6  non d ame     -12.348   5.779  72.583  0.00  0.00    -0.369 OA
ATOM     89  H45 non d ame     -12.310   4.960  72.085  0.00  0.00     0.212 HD
ENDBRANCH  83  88
ENDBRANCH  72  75
ENDBRANCH  47  72
ENDBRANCH  45  47
ENDBRANCH   1  43
BRANCH   1  90
ATOM     90  C16 non d ame      -7.053   7.917  68.232  0.00  0.00    -0.035 C 
ATOM     91  H21 non d ame      -6.779   8.536  67.377  0.00  0.00     0.037 H 
ATOM     92  H22 non d ame      -6.542   8.049  69.185  0.00  0.00     0.037 H 
BRANCH  90  93
ATOM     93  C17 non d ame      -6.810   6.437  67.800  0.00  0.00    -0.059 C 
ATOM     94  H23 non d ame      -7.706   5.869  68.048  0.00  0.00     0.038 H 
BRANCH  93  95
ATOM     95  C18 non d ame      -6.570   6.302  66.263  0.00  0.00    -0.073 C 
ATOM     96  H24 non d ame      -5.685   6.873  65.982  0.00  0.00     0.028 H 
ATOM     97  H25 non d ame      -6.420   5.252  66.009  0.00  0.00     0.028 H 
ATOM     98  H26 non d ame      -7.436   6.685  65.725  0.00  0.00     0.028 H 
ENDBRANCH  93  95
BRANCH  93  99
ATOM     99  C19 non d ame      -5.650   5.821  68.589  0.00  0.00    -0.073 C 
ATOM    100  H27 non d ame      -6.016   4.975  69.171  0.00  0.00     0.028 H 
ATOM    101  H28 non d ame      -4.880   5.481  67.897  0.00  0.00     0.028 H 
ATOM    102  H29 non d ame      -5.231   6.569  69.261  0.00  0.00     0.028 H 
ENDBRANCH  93  99
ENDBRANCH  90  93
ENDBRANCH   1  90
TORSDOF 26
ENDMDL
