MODEL 1
REMARK VINA RESULT:      -6.9      0.000      0.000
REMARK  26 active torsions:
REMARK  status: ('A' for Active; 'I' for Inactive)
REMARK    1  A    between atoms: C2_2  and  C3_3 
REMARK    2  A    between atoms: C4_6  and  C5_7 
REMARK       I    between atoms: C5_7  and  N2_9 
REMARK    3  A    between atoms: N2_9  and  C6_10 
REMARK    4  A    between atoms: C6_10  and  C7_11 
REMARK    5  A    between atoms: C6_10  and  C8_13 
REMARK       I    between atoms: C7_11  and  N3_14 
REMARK    6  A    between atoms: N3_14  and  C9_15 
REMARK    7  A    between atoms: C9_15  and  C10_16 
REMARK    8  A    between atoms: C9_15  and  C11_18 
REMARK       I    between atoms: C10_16  and  N4_21 
REMARK    9  A    between atoms: C11_18  and  C12_19 
REMARK   10  A    between atoms: C11_18  and  C13_20 
REMARK   11  A    between atoms: N4_21  and  C14_22 
REMARK   12  A    between atoms: C14_22  and  C15_23 
REMARK   13  A    between atoms: C14_22  and  C16_25 
REMARK       I    between atoms: C15_23  and  N6_40 
REMARK   14  A    between atoms: C16_25  and  C17_26 
REMARK   15  A    between atoms: C17_26  and  C18_27 
REMARK   16  A    between atoms: C17_26  and  C19_28 
REMARK   17  A    between atoms: C20_29  and  C21_30 
REMARK   18  A    between atoms: C20_29  and  C24_33 
REMARK   19  A    between atoms: C20_29  and  N6_40 
REMARK   20  A    between atoms: C21_30  and  C22_31 
REMARK   21  A    between atoms: C22_31  and  C23_32 
REMARK   22  A    between atoms: C23_32  and  O8_43 
REMARK   23  A    between atoms: C24_33  and  C25_34 
REMARK   24  A    between atoms: C28_38  and  O6_39 
REMARK   25  A    between atoms: C29_42  and  O8_43 
REMARK   26  A    between atoms: C29_42  and  C35_49 
ROOT
ATOM      1  C14 non d ame     -11.842  14.094  69.810  0.00  0.00     0.089 C 
ATOM      2  H20 non d ame     -12.832  13.662  69.663  0.00  0.00     0.087 H 
ENDROOT
BRANCH   1   3
ATOM      3  N4  non d ame     -10.864  13.045  69.564  0.00  0.00    -0.346 N 
ATOM      4  C10 non d ame     -11.191  11.900  68.638  0.00  0.00     0.241 C 
ATOM      5  O4  non d ame     -12.250  11.844  68.105  0.00  0.00    -0.271 OA
ATOM      6  H19 non d ame      -9.970  13.111  70.030  0.00  0.00     0.163 HD
BRANCH   4   7
ATOM      7  C9  non d ame     -10.165  10.826  68.391  0.00  0.00     0.092 C 
ATOM      8  H11 non d ame     -10.023  10.706  67.317  0.00  0.00     0.088 H 
BRANCH   7   9
ATOM      9  N3  non d ame      -8.877  11.242  68.954  0.00  0.00    -0.346 N 
ATOM     10  C7  non d ame      -7.857  11.789  68.094  0.00  0.00     0.240 C 
ATOM     11  O3  non d ame      -8.055  11.901  66.946  0.00  0.00    -0.271 OA
ATOM     12  H10 non d ame      -8.691  11.149  69.942  0.00  0.00     0.163 HD
BRANCH  10  13
ATOM     13  C6  non d ame      -6.487  12.226  68.699  0.00  0.00     0.086 C 
ATOM     14  H6  non d ame      -5.643  11.982  68.053  0.00  0.00     0.086 H 
BRANCH  13  15
ATOM     15  N2  non d ame      -6.482  13.671  68.860  0.00  0.00    -0.343 N 
ATOM     16  C5  non d ame      -5.518  14.477  68.107  0.00  0.00     0.273 C 
ATOM     17  O2  non d ame      -4.749  13.953  67.378  0.00  0.00    -0.266 OA
ATOM     18  H5  non d ame      -7.141  14.110  69.486  0.00  0.00     0.163 HD
BRANCH  16  19
ATOM     19  C4  non d ame      -5.503  16.005  68.266  0.00  0.00     0.154 A 
ATOM     20  C1  non d ame      -5.854  16.757  69.432  0.00  0.00    -0.017 A 
ATOM     21  C2  non d ame      -5.673  18.108  69.062  0.00  0.00     0.077 A 
ATOM     22  H1  non d ame      -6.189  16.380  70.399  0.00  0.00     0.091 H 
ATOM     23  O1  non d ame      -5.264  18.120  67.826  0.00  0.00    -0.218 OA
ATOM     24  N1  non d ame      -5.158  16.905  67.340  0.00  0.00    -0.123 NA
BRANCH  21  25
ATOM     25  C3  non d ame      -5.910  19.325  69.946  0.00  0.00    -0.029 C 
ATOM     26  H2  non d ame      -6.969  19.587  69.929  0.00  0.00     0.036 H 
ATOM     27  H3  non d ame      -5.610  19.095  70.968  0.00  0.00     0.036 H 
ATOM     28  H4  non d ame      -5.322  20.165  69.576  0.00  0.00     0.036 H 
ENDBRANCH  21  25
ENDBRANCH  16  19
ENDBRANCH  13  15
BRANCH  13  29
ATOM     29  C8  non d ame      -6.287  11.558  70.035  0.00  0.00    -0.049 C 
ATOM     30  H7  non d ame      -5.224  11.536  70.276  0.00  0.00     0.030 H 
ATOM     31  H8  non d ame      -6.822  12.117  70.804  0.00  0.00     0.030 H 
ATOM     32  H9  non d ame      -6.671  10.539  69.993  0.00  0.00     0.030 H 
ENDBRANCH  13  29
ENDBRANCH  10  13
ENDBRANCH   7   9
BRANCH   7  33
ATOM     33  C11 non d ame     -10.624   9.504  69.072  0.00  0.00    -0.033 C 
ATOM     34  H12 non d ame     -11.712   9.523  69.128  0.00  0.00     0.042 H 
BRANCH  33  35
ATOM     35  C12 non d ame     -10.221   8.258  68.223  0.00  0.00    -0.071 C 
ATOM     36  H13 non d ame      -9.938   7.442  68.888  0.00  0.00     0.028 H 
ATOM     37  H14 non d ame     -11.066   7.948  67.608  0.00  0.00     0.028 H 
ATOM     38  H15 non d ame      -9.379   8.514  67.581  0.00  0.00     0.028 H 
ENDBRANCH  33  35
BRANCH  33  39
ATOM     39  C13 non d ame     -10.066   9.402  70.528  0.00  0.00    -0.071 C 
ATOM     40  H16 non d ame      -9.395  10.239  70.719  0.00  0.00     0.028 H 
ATOM     41  H17 non d ame     -10.893   9.428  71.237  0.00  0.00     0.028 H 
ATOM     42  H18 non d ame      -9.520   8.465  70.642  0.00  0.00     0.028 H 
ENDBRANCH  33  39
ENDBRANCH   7  33
ENDBRANCH   4   7
ENDBRANCH   1   3
BRANCH   1  43
ATOM     43  C15 non d ame     -11.564  15.270  68.830  0.00  0.00     0.240 C 
ATOM     44  O5  non d ame     -12.131  16.306  68.973  0.00  0.00    -0.271 OA
ATOM     45  N6  non d ame     -10.585  15.109  67.718  0.00  0.00    -0.355 N 
ATOM     46  H46 non d ame     -10.095  14.236  67.588  0.00  0.00     0.162 HD
BRANCH  45  47
ATOM     47  C20 non d ame     -10.331  16.237  66.796  0.00  0.00     0.013 C 
ATOM     48  H30 non d ame     -11.061  17.017  67.011  0.00  0.00     0.072 H 
BRANCH  47  49
ATOM     49  C21 non d ame     -10.489  15.762  65.369  0.00  0.00    -0.038 C 
ATOM     50  H31 non d ame     -11.489  16.072  65.064  0.00  0.00     0.036 H 
ATOM     51  H32 non d ame      -9.614  16.138  64.836  0.00  0.00     0.036 H 
BRANCH  49  52
ATOM     52  C22 non d ame     -10.449  14.224  65.241  0.00  0.00     0.018 C 
ATOM     53  H33 non d ame      -9.963  14.019  64.286  0.00  0.00     0.048 H 
ATOM     54  H34 non d ame     -10.003  13.862  66.168  0.00  0.00     0.048 H 
BRANCH  52  55
ATOM     55  C23 non d ame     -11.854  13.567  65.154  0.00  0.00     0.259 C 
ATOM     56  O7  non d ame     -12.805  14.117  65.606  0.00  0.00    -0.265 OA
BRANCH  55  57
ATOM     57  O8  non d ame     -11.991  12.291  64.541  0.00  0.00    -0.317 OA
BRANCH  57  58
ATOM     58  C29 non d ame     -11.277  12.157  63.308  0.00  0.00     0.052 C 
ATOM     59  H47 non d ame     -11.985  11.726  62.602  0.00  0.00     0.082 H 
ATOM     60  H48 non d ame     -10.841  13.137  63.113  0.00  0.00     0.082 H 
BRANCH  58  61
ATOM     61  C35 non d ame     -10.125  11.142  63.531  0.00  0.00    -0.034 A 
ATOM     62  C30 non d ame      -9.064  11.085  62.633  0.00  0.00    -0.075 A 
ATOM     63  C31 non d ame      -8.029  10.173  62.832  0.00  0.00    -0.082 A 
ATOM     64  H49 non d ame      -9.044  11.753  61.773  0.00  0.00     0.084 H 
ATOM     65  C32 non d ame      -8.058   9.314  63.934  0.00  0.00    -0.083 A 
ATOM     66  H50 non d ame      -7.199  10.132  62.127  0.00  0.00     0.083 H 
ATOM     67  C33 non d ame      -9.120   9.373  64.827  0.00  0.00    -0.082 A 
ATOM     68  H51 non d ame      -7.252   8.598  64.098  0.00  0.00     0.083 H 
ATOM     69  C34 non d ame     -10.156  10.285  64.632  0.00  0.00    -0.075 A 
ATOM     70  H52 non d ame      -9.141   8.700  65.684  0.00  0.00     0.083 H 
ATOM     71  H53 non d ame     -10.986  10.325  65.338  0.00  0.00     0.084 H 
ENDBRANCH  58  61
ENDBRANCH  57  58
ENDBRANCH  55  57
ENDBRANCH  52  55
ENDBRANCH  49  52
ENDBRANCH  47  49
BRANCH  47  72
ATOM     72  C24 non d ame      -8.914  16.765  67.004  0.00  0.00    -0.039 C 
ATOM     73  H35 non d ame      -8.520  16.212  67.858  0.00  0.00     0.036 H 
ATOM     74  H36 non d ame      -8.427  16.683  66.032  0.00  0.00     0.036 H 
BRANCH  72  75
ATOM     75  C25 non d ame      -8.912  18.316  67.404  0.00  0.00    -0.001 C 
ATOM     76  C26 non d ame     -10.442  18.915  67.337  0.00  0.00    -0.035 C 
ATOM     77  C27 non d ame     -10.438  20.039  66.583  0.00  0.00     0.085 C 
ATOM     78  H38 non d ame     -11.084  18.235  66.777  0.00  0.00     0.036 H 
ATOM     79  H39 non d ame     -10.749  19.268  68.321  0.00  0.00     0.036 H 
ATOM     80  N5  non d ame      -9.113  20.084  65.862  0.00  0.00    -0.049 N 
ATOM     81  H40 non d ame     -11.236  19.904  65.852  0.00  0.00     0.075 H 
ATOM     82  H41 non d ame     -10.483  20.865  67.293  0.00  0.00     0.075 H 
ATOM     83  C28 non d ame      -8.168  19.004  66.602  0.00  0.00     0.193 C 
ATOM     84  H42 non d ame      -9.289  19.765  64.920  0.00  0.00     0.280 HD
ATOM     85  H43 non d ame      -8.732  21.006  66.019  0.00  0.00     0.280 HD
ATOM     86  H44 non d ame      -7.386  19.331  67.288  0.00  0.00     0.129 H 
ATOM     87  H37 non d ame      -8.344  18.507  68.314  0.00  0.00     0.046 H 
BRANCH  83  88
ATOM     88  O6  non d ame      -7.510  18.182  65.637  0.00  0.00    -0.369 OA
ATOM     89  H45 non d ame      -6.690  17.849  66.007  0.00  0.00     0.212 HD
ENDBRANCH  83  88
ENDBRANCH  72  75
ENDBRANCH  47  72
ENDBRANCH  45  47
ENDBRANCH   1  43
BRANCH   1  90
ATOM     90  C16 non d ame     -11.700  14.580  71.244  0.00  0.00    -0.035 C 
ATOM     91  H21 non d ame     -11.092  13.827  71.744  0.00  0.00     0.037 H 
ATOM     92  H22 non d ame     -11.342  15.606  71.167  0.00  0.00     0.037 H 
BRANCH  90  93
ATOM     93  C17 non d ame     -13.053  14.641  72.021  0.00  0.00    -0.059 C 
ATOM     94  H23 non d ame     -13.758  15.209  71.415  0.00  0.00     0.038 H 
BRANCH  93  95
ATOM     95  C18 non d ame     -13.662  13.222  72.258  0.00  0.00    -0.073 C 
ATOM     96  H24 non d ame     -14.594  13.129  71.699  0.00  0.00     0.028 H 
ATOM     97  H25 non d ame     -12.959  12.463  71.917  0.00  0.00     0.028 H 
ATOM     98  H26 non d ame     -13.860  13.083  73.320  0.00  0.00     0.028 H 
ENDBRANCH  93  95
BRANCH  93  99
ATOM     99  C19 non d ame     -12.889  15.391  73.346  0.00  0.00    -0.073 C 
ATOM    100  H27 non d ame     -13.860  15.754  73.680  0.00  0.00     0.028 H 
ATOM    101  H28 non d ame     -12.475  14.717  74.096  0.00  0.00     0.028 H 
ATOM    102  H29 non d ame     -12.215  16.235  73.204  0.00  0.00     0.028 H 
ENDBRANCH  93  99
ENDBRANCH  90  93
ENDBRANCH   1  90
TORSDOF 26
ENDMDL
MODEL 2
REMARK VINA RESULT:      -6.5      2.627      5.919
REMARK  26 active torsions:
REMARK  status: ('A' for Active; 'I' for Inactive)
REMARK    1  A    between atoms: C2_2  and  C3_3 
REMARK    2  A    between atoms: C4_6  and  C5_7 
REMARK       I    between atoms: C5_7  and  N2_9 
REMARK    3  A    between atoms: N2_9  and  C6_10 
REMARK    4  A    between atoms: C6_10  and  C7_11 
REMARK    5  A    between atoms: C6_10  and  C8_13 
REMARK       I    between atoms: C7_11  and  N3_14 
REMARK    6  A    between atoms: N3_14  and  C9_15 
REMARK    7  A    between atoms: C9_15  and  C10_16 
REMARK    8  A    between atoms: C9_15  and  C11_18 
REMARK       I    between atoms: C10_16  and  N4_21 
REMARK    9  A    between atoms: C11_18  and  C12_19 
REMARK   10  A    between atoms: C11_18  and  C13_20 
REMARK   11  A    between atoms: N4_21  and  C14_22 
REMARK   12  A    between atoms: C14_22  and  C15_23 
REMARK   13  A    between atoms: C14_22  and  C16_25 
REMARK       I    between atoms: C15_23  and  N6_40 
REMARK   14  A    between atoms: C16_25  and  C17_26 
REMARK   15  A    between atoms: C17_26  and  C18_27 
REMARK   16  A    between atoms: C17_26  and  C19_28 
REMARK   17  A    between atoms: C20_29  and  C21_30 
REMARK   18  A    between atoms: C20_29  and  C24_33 
REMARK   19  A    between atoms: C20_29  and  N6_40 
REMARK   20  A    between atoms: C21_30  and  C22_31 
REMARK   21  A    between atoms: C22_31  and  C23_32 
REMARK   22  A    between atoms: C23_32  and  O8_43 
REMARK   23  A    between atoms: C24_33  and  C25_34 
REMARK   24  A    between atoms: C28_38  and  O6_39 
REMARK   25  A    between atoms: C29_42  and  O8_43 
REMARK   26  A    between atoms: C29_42  and  C35_49 
ROOT
ATOM      1  C14 non d ame      -9.816  10.229  67.725  0.00  0.00     0.089 C 
ATOM      2  H20 non d ame      -9.030  10.604  68.380  0.00  0.00     0.087 H 
ENDROOT
BRANCH   1   3
ATOM      3  N4  non d ame     -10.457   9.113  68.404  0.00  0.00    -0.346 N 
ATOM      4  C10 non d ame      -9.742   8.384  69.514  0.00  0.00     0.241 C 
ATOM      5  O4  non d ame      -8.649   8.713  69.841  0.00  0.00    -0.271 OA
ATOM      6  H19 non d ame     -11.386   8.847  68.108  0.00  0.00     0.163 HD
BRANCH   4   7
ATOM      7  C9  non d ame     -10.422   7.234  70.209  0.00  0.00     0.092 C 
ATOM      8  H11 non d ame      -9.877   6.994  71.122  0.00  0.00     0.088 H 
BRANCH   7   9
ATOM      9  N3  non d ame     -11.775   7.635  70.607  0.00  0.00    -0.346 N 
ATOM     10  C7  non d ame     -12.028   8.083  71.954  0.00  0.00     0.240 C 
ATOM     11  O3  non d ame     -11.154   8.125  72.733  0.00  0.00    -0.271 OA
ATOM     12  H10 non d ame     -12.539   7.602  69.948  0.00  0.00     0.163 HD
BRANCH  10  13
ATOM     13  C6  non d ame     -13.471   8.504  72.372  0.00  0.00     0.086 C 
ATOM     14  H6  non d ame     -13.773   8.082  73.331  0.00  0.00     0.086 H 
BRANCH  13  15
ATOM     15  N2  non d ame     -13.514   9.949  72.522  0.00  0.00    -0.343 N 
ATOM     16  C5  non d ame     -13.017  10.801  71.439  0.00  0.00     0.273 C 
ATOM     17  O2  non d ame     -12.583  10.315  70.454  0.00  0.00    -0.266 OA
ATOM     18  H5  non d ame     -13.885  10.357  73.368  0.00  0.00     0.163 HD
BRANCH  16  19
ATOM     19  C4  non d ame     -13.059  12.331  71.583  0.00  0.00     0.154 A 
ATOM     20  C1  non d ame     -12.381  13.294  70.770  0.00  0.00    -0.017 A 
ATOM     21  C2  non d ame     -12.745  14.548  71.311  0.00  0.00     0.077 A 
ATOM     22  H1  non d ame     -11.724  13.112  69.919  0.00  0.00     0.091 H 
ATOM     23  O1  non d ame     -13.542  14.320  72.315  0.00  0.00    -0.218 OA
ATOM     24  N1  non d ame     -13.739  13.033  72.494  0.00  0.00    -0.123 NA
BRANCH  21  25
ATOM     25  C3  non d ame     -12.292  15.912  70.810  0.00  0.00    -0.029 C 
ATOM     26  H2  non d ame     -12.770  16.694  71.401  0.00  0.00     0.036 H 
ATOM     27  H3  non d ame     -11.210  15.993  70.907  0.00  0.00     0.036 H 
ATOM     28  H4  non d ame     -12.572  16.026  69.762  0.00  0.00     0.036 H 
ENDBRANCH  21  25
ENDBRANCH  16  19
ENDBRANCH  13  15
BRANCH  13  29
ATOM     29  C8  non d ame     -14.452   8.065  71.316  0.00  0.00    -0.049 C 
ATOM     30  H7  non d ame     -15.424   8.519  71.511  0.00  0.00     0.030 H 
ATOM     31  H8  non d ame     -14.094   8.381  70.334  0.00  0.00     0.030 H 
ATOM     32  H9  non d ame     -14.548   6.981  71.336  0.00  0.00     0.030 H 
ENDBRANCH  13  29
ENDBRANCH  10  13
ENDBRANCH   7   9
BRANCH   7  33
ATOM     33  C11 non d ame     -10.507   6.019  69.241  0.00  0.00    -0.033 C 
ATOM     34  H12 non d ame     -11.487   6.047  68.763  0.00  0.00     0.042 H 
BRANCH  33  35
ATOM     35  C12 non d ame      -9.433   6.114  68.113  0.00  0.00    -0.071 C 
ATOM     36  H13 non d ame      -9.509   5.241  67.464  0.00  0.00     0.028 H 
ATOM     37  H14 non d ame      -9.600   7.017  67.527  0.00  0.00     0.028 H 
ATOM     38  H15 non d ame      -8.440   6.150  68.561  0.00  0.00     0.028 H 
ENDBRANCH  33  35
BRANCH  33  39
ATOM     39  C13 non d ame     -10.389   4.671  70.023  0.00  0.00    -0.071 C 
ATOM     40  H16 non d ame     -11.076   3.942  69.595  0.00  0.00     0.028 H 
ATOM     41  H17 non d ame      -9.368   4.297  69.952  0.00  0.00     0.028 H 
ATOM     42  H18 non d ame     -10.643   4.837  71.070  0.00  0.00     0.028 H 
ENDBRANCH  33  39
ENDBRANCH   7  33
ENDBRANCH   4   7
ENDBRANCH   1   3
BRANCH   1  43
ATOM     43  C15 non d ame     -10.894  11.309  67.422  0.00  0.00     0.240 C 
ATOM     44  O5  non d ame     -12.044  11.062  67.596  0.00  0.00    -0.271 OA
ATOM     45  N6  non d ame     -10.493  12.656  66.925  0.00  0.00    -0.355 N 
ATOM     46  H46 non d ame      -9.519  12.879  66.777  0.00  0.00     0.162 HD
BRANCH  45  47
ATOM     47  C20 non d ame     -11.530  13.672  66.643  0.00  0.00     0.013 C 
ATOM     48  H30 non d ame     -12.409  13.427  67.238  0.00  0.00     0.072 H 
BRANCH  47  49
ATOM     49  C21 non d ame     -11.876  13.638  65.171  0.00  0.00    -0.038 C 
ATOM     50  H31 non d ame     -12.776  13.028  65.094  0.00  0.00     0.036 H 
ATOM     51  H32 non d ame     -11.893  14.680  64.850  0.00  0.00     0.036 H 
BRANCH  49  52
ATOM     52  C22 non d ame     -10.798  12.937  64.317  0.00  0.00     0.018 C 
ATOM     53  H33 non d ame     -10.460  13.683  63.597  0.00  0.00     0.048 H 
ATOM     54  H34 non d ame     -10.092  12.506  65.028  0.00  0.00     0.048 H 
BRANCH  52  55
ATOM     55  C23 non d ame     -11.341  11.747  63.478  0.00  0.00     0.259 C 
ATOM     56  O7  non d ame     -12.503  11.651  63.252  0.00  0.00    -0.265 OA
BRANCH  55  57
ATOM     57  O8  non d ame     -10.434  10.765  62.992  0.00  0.00    -0.317 OA
BRANCH  57  58
ATOM     58  C29 non d ame      -9.109  11.255  62.766  0.00  0.00     0.052 C 
ATOM     59  H47 non d ame      -9.111  11.655  61.753  0.00  0.00     0.082 H 
ATOM     60  H48 non d ame      -8.890  11.910  63.610  0.00  0.00     0.082 H 
BRANCH  58  61
ATOM     61  C35 non d ame      -8.137  10.046  62.816  0.00  0.00    -0.034 A 
ATOM     62  C30 non d ame      -8.632   8.762  63.015  0.00  0.00    -0.075 A 
ATOM     63  C31 non d ame      -7.759   7.676  63.060  0.00  0.00    -0.082 A 
ATOM     64  H49 non d ame      -9.704   8.606  63.135  0.00  0.00     0.084 H 
ATOM     65  C32 non d ame      -6.385   7.880  62.908  0.00  0.00    -0.083 A 
ATOM     66  H50 non d ame      -8.150   6.671  63.214  0.00  0.00     0.083 H 
ATOM     67  C33 non d ame      -5.894   9.164  62.713  0.00  0.00    -0.082 A 
ATOM     68  H51 non d ame      -5.695   7.036  62.942  0.00  0.00     0.083 H 
ATOM     69  C34 non d ame      -6.765  10.251  62.665  0.00  0.00    -0.075 A 
ATOM     70  H52 non d ame      -4.822   9.319  62.597  0.00  0.00     0.083 H 
ATOM     71  H53 non d ame      -6.371  11.257  62.511  0.00  0.00     0.084 H 
ENDBRANCH  58  61
ENDBRANCH  57  58
ENDBRANCH  55  57
ENDBRANCH  52  55
ENDBRANCH  49  52
ENDBRANCH  47  49
BRANCH  47  72
ATOM     72  C24 non d ame     -11.007  15.058  67.012  0.00  0.00    -0.039 C 
ATOM     73  H35 non d ame     -11.234  15.692  66.156  0.00  0.00     0.036 H 
ATOM     74  H36 non d ame     -11.443  15.282  67.987  0.00  0.00     0.036 H 
BRANCH  72  75
ATOM     75  C25 non d ame      -9.416  15.062  67.195  0.00  0.00    -0.001 C 
ATOM     76  C26 non d ame      -9.030  15.443  68.747  0.00  0.00    -0.035 C 
ATOM     77  C27 non d ame      -8.124  16.450  68.738  0.00  0.00     0.085 C 
ATOM     78  H38 non d ame      -9.892  15.881  69.249  0.00  0.00     0.036 H 
ATOM     79  H39 non d ame      -8.490  14.618  69.212  0.00  0.00     0.036 H 
ATOM     80  N5  non d ame      -8.101  17.010  67.337  0.00  0.00    -0.049 N 
ATOM     81  H40 non d ame      -8.521  17.206  69.417  0.00  0.00     0.075 H 
ATOM     82  H41 non d ame      -7.164  15.979  68.947  0.00  0.00     0.075 H 
ATOM     83  C28 non d ame      -8.858  15.925  66.411  0.00  0.00     0.193 C 
ATOM     84  H42 non d ame      -8.654  17.856  67.357  0.00  0.00     0.280 HD
ATOM     85  H43 non d ame      -7.131  17.049  67.059  0.00  0.00     0.280 HD
ATOM     86  H44 non d ame      -8.290  15.262  65.758  0.00  0.00     0.129 H 
ATOM     87  H37 non d ame      -8.949  14.173  66.772  0.00  0.00     0.046 H 
BRANCH  83  88
ATOM     88  O6  non d ame      -9.806  16.575  65.564  0.00  0.00    -0.369 OA
ATOM     89  H45 non d ame      -9.470  17.439  65.313  0.00  0.00     0.212 HD
ENDBRANCH  83  88
ENDBRANCH  72  75
ENDBRANCH  47  72
ENDBRANCH  45  47
ENDBRANCH   1  43
BRANCH   1  90
ATOM     90  C16 non d ame      -9.208   9.735  66.422  0.00  0.00    -0.035 C 
ATOM     91  H21 non d ame      -9.386   8.659  66.410  0.00  0.00     0.037 H 
ATOM     92  H22 non d ame      -9.638  10.366  65.645  0.00  0.00     0.037 H 
BRANCH  90  93
ATOM     93  C17 non d ame      -7.660   9.925  66.341  0.00  0.00    -0.059 C 
ATOM     94  H23 non d ame      -7.395  10.036  65.290  0.00  0.00     0.038 H 
BRANCH  93  95
ATOM     95  C18 non d ame      -7.184  11.209  67.091  0.00  0.00    -0.073 C 
ATOM     96  H24 non d ame      -6.785  10.933  68.068  0.00  0.00     0.028 H 
ATOM     97  H25 non d ame      -6.406  11.703  66.509  0.00  0.00     0.028 H 
ATOM     98  H26 non d ame      -8.026  11.888  67.221  0.00  0.00     0.028 H 
ENDBRANCH  93  95
BRANCH  93  99
ATOM     99  C19 non d ame      -6.929   8.685  66.864  0.00  0.00    -0.073 C 
ATOM    100  H27 non d ame      -7.398   8.351  67.789  0.00  0.00     0.028 H 
ATOM    101  H28 non d ame      -6.985   7.890  66.120  0.00  0.00     0.028 H 
ATOM    102  H29 non d ame      -5.886   8.933  67.055  0.00  0.00     0.028 H 
ENDBRANCH  93  99
ENDBRANCH  90  93
ENDBRANCH   1  90
TORSDOF 26
ENDMDL
MODEL 3
REMARK VINA RESULT:      -6.4      1.701      2.498
REMARK  26 active torsions:
REMARK  status: ('A' for Active; 'I' for Inactive)
REMARK    1  A    between atoms: C2_2  and  C3_3 
REMARK    2  A    between atoms: C4_6  and  C5_7 
REMARK       I    between atoms: C5_7  and  N2_9 
REMARK    3  A    between atoms: N2_9  and  C6_10 
REMARK    4  A    between atoms: C6_10  and  C7_11 
REMARK    5  A    between atoms: C6_10  and  C8_13 
REMARK       I    between atoms: C7_11  and  N3_14 
REMARK    6  A    between atoms: N3_14  and  C9_15 
REMARK    7  A    between atoms: C9_15  and  C10_16 
REMARK    8  A    between atoms: C9_15  and  C11_18 
REMARK       I    between atoms: C10_16  and  N4_21 
REMARK    9  A    between atoms: C11_18  and  C12_19 
REMARK   10  A    between atoms: C11_18  and  C13_20 
REMARK   11  A    between atoms: N4_21  and  C14_22 
REMARK   12  A    between atoms: C14_22  and  C15_23 
REMARK   13  A    between atoms: C14_22  and  C16_25 
REMARK       I    between atoms: C15_23  and  N6_40 
REMARK   14  A    between atoms: C16_25  and  C17_26 
REMARK   15  A    between atoms: C17_26  and  C18_27 
REMARK   16  A    between atoms: C17_26  and  C19_28 
REMARK   17  A    between atoms: C20_29  and  C21_30 
REMARK   18  A    between atoms: C20_29  and  C24_33 
REMARK   19  A    between atoms: C20_29  and  N6_40 
REMARK   20  A    between atoms: C21_30  and  C22_31 
REMARK   21  A    between atoms: C22_31  and  C23_32 
REMARK   22  A    between atoms: C23_32  and  O8_43 
REMARK   23  A    between atoms: C24_33  and  C25_34 
REMARK   24  A    between atoms: C28_38  and  O6_39 
REMARK   25  A    between atoms: C29_42  and  O8_43 
REMARK   26  A    between atoms: C29_42  and  C35_49 
ROOT
ATOM      1  C14 non d ame     -12.287  14.237  70.446  0.00  0.00     0.089 C 
ATOM      2  H20 non d ame     -13.366  14.173  70.584  0.00  0.00     0.087 H 
ENDROOT
BRANCH   1   3
ATOM      3  N4  non d ame     -11.802  12.897  70.150  0.00  0.00    -0.346 N 
ATOM      4  C10 non d ame     -12.401  11.699  70.844  0.00  0.00     0.241 C 
ATOM      5  O4  non d ame     -13.271  11.840  71.639  0.00  0.00    -0.271 OA
ATOM      6  H19 non d ame     -11.059  12.799  69.472  0.00  0.00     0.163 HD
BRANCH   4   7
ATOM      7  C9  non d ame     -11.891  10.320  70.522  0.00  0.00     0.092 C 
ATOM      8  H11 non d ame     -12.463   9.911  69.689  0.00  0.00     0.088 H 
BRANCH   7   9
ATOM      9  N3  non d ame     -10.494  10.404  70.087  0.00  0.00    -0.346 N 
ATOM     10  C7  non d ame     -10.156  10.199  68.700  0.00  0.00     0.240 C 
ATOM     11  O3  non d ame     -10.997   9.963  67.920  0.00  0.00    -0.271 OA
ATOM     12  H10 non d ame      -9.758  10.605  70.748  0.00  0.00     0.163 HD
BRANCH  10  13
ATOM     13  C6  non d ame      -8.667  10.286  68.244  0.00  0.00     0.086 C 
ATOM     14  H6  non d ame      -8.559  10.648  67.221  0.00  0.00     0.086 H 
BRANCH  13  15
ATOM     15  N2  non d ame      -7.969  11.235  69.096  0.00  0.00    -0.343 N 
ATOM     16  C5  non d ame      -7.101  12.246  68.488  0.00  0.00     0.273 C 
ATOM     17  O2  non d ame      -6.969  12.286  67.314  0.00  0.00    -0.266 OA
ATOM     18  H5  non d ame      -8.085  11.193  70.098  0.00  0.00     0.163 HD
BRANCH  16  19
ATOM     19  C4  non d ame      -6.358  13.258  69.375  0.00  0.00     0.154 A 
ATOM     20  C1  non d ame      -5.195  13.016  70.174  0.00  0.00    -0.017 A 
ATOM     21  C2  non d ame      -4.913  14.256  70.789  0.00  0.00     0.077 A 
ATOM     22  H1  non d ame      -4.642  12.084  70.290  0.00  0.00     0.091 H 
ATOM     23  O1  non d ame      -5.813  15.104  70.383  0.00  0.00    -0.218 OA
ATOM     24  N1  non d ame      -6.667  14.544  69.558  0.00  0.00    -0.123 NA
BRANCH  21  25
ATOM     25  C3  non d ame      -3.766  14.547  71.748  0.00  0.00    -0.029 C 
ATOM     26  H2  non d ame      -3.077  15.256  71.287  0.00  0.00     0.036 H 
ATOM     27  H3  non d ame      -4.162  14.971  72.670  0.00  0.00     0.036 H 
ATOM     28  H4  non d ame      -3.236  13.621  71.973  0.00  0.00     0.036 H 
ENDBRANCH  21  25
ENDBRANCH  16  19
ENDBRANCH  13  15
BRANCH  13  29
ATOM     29  C8  non d ame      -8.024   8.927  68.352  0.00  0.00    -0.049 C 
ATOM     30  H7  non d ame      -7.678   8.768  69.373  0.00  0.00     0.030 H 
ATOM     31  H8  non d ame      -8.754   8.159  68.091  0.00  0.00     0.030 H 
ATOM     32  H9  non d ame      -7.177   8.871  67.669  0.00  0.00     0.030 H 
ENDBRANCH  13  29
ENDBRANCH  10  13
ENDBRANCH   7   9
BRANCH   7  33
ATOM     33  C11 non d ame     -11.984   9.423  71.791  0.00  0.00    -0.033 C 
ATOM     34  H12 non d ame     -12.161  10.078  72.644  0.00  0.00     0.042 H 
BRANCH  33  35
ATOM     35  C12 non d ame     -13.187   8.434  71.701  0.00  0.00    -0.071 C 
ATOM     36  H13 non d ame     -14.098   8.989  71.477  0.00  0.00     0.028 H 
ATOM     37  H14 non d ame     -13.002   7.706  70.911  0.00  0.00     0.028 H 
ATOM     38  H15 non d ame     -13.302   7.915  72.653  0.00  0.00     0.028 H 
ENDBRANCH  33  35
BRANCH  33  39
ATOM     39  C13 non d ame     -10.642   8.661  72.036  0.00  0.00    -0.071 C 
ATOM     40  H16 non d ame      -9.952   8.869  71.219  0.00  0.00     0.028 H 
ATOM     41  H17 non d ame     -10.202   8.992  72.977  0.00  0.00     0.028 H 
ATOM     42  H18 non d ame     -10.837   7.590  72.083  0.00  0.00     0.028 H 
ENDBRANCH  33  39
ENDBRANCH   7  33
ENDBRANCH   4   7
ENDBRANCH   1   3
BRANCH   1  43
ATOM     43  C15 non d ame     -11.900  15.175  69.267  0.00  0.00     0.240 C 
ATOM     44  O5  non d ame     -12.273  16.304  69.263  0.00  0.00    -0.271 OA
ATOM     45  N6  non d ame     -11.056  14.669  68.147  0.00  0.00    -0.355 N 
ATOM     46  H46 non d ame     -10.730  13.714  68.141  0.00  0.00     0.162 HD
BRANCH  45  47
ATOM     47  C20 non d ame     -10.696  15.574  67.034  0.00  0.00     0.013 C 
ATOM     48  H30 non d ame     -11.321  16.464  67.110  0.00  0.00     0.072 H 
BRANCH  47  49
ATOM     49  C21 non d ame     -10.950  14.875  65.718  0.00  0.00    -0.038 C 
ATOM     50  H31 non d ame     -12.034  14.784  65.637  0.00  0.00     0.036 H 
ATOM     51  H32 non d ame     -10.392  15.442  64.972  0.00  0.00     0.036 H 
BRANCH  49  52
ATOM     52  C22 non d ame     -10.387  13.438  65.684  0.00  0.00     0.018 C 
ATOM     53  H33 non d ame      -9.587  13.451  64.943  0.00  0.00     0.048 H 
ATOM     54  H34 non d ame     -10.166  13.183  66.721  0.00  0.00     0.048 H 
BRANCH  52  55
ATOM     55  C23 non d ame     -11.409  12.377  65.189  0.00  0.00     0.259 C 
ATOM     56  O7  non d ame     -12.573  12.531  65.371  0.00  0.00    -0.265 OA
BRANCH  55  57
ATOM     57  O8  non d ame     -10.938  11.210  64.528  0.00  0.00    -0.317 OA
BRANCH  57  58
ATOM     58  C29 non d ame      -9.608  10.829  64.892  0.00  0.00     0.052 C 
ATOM     59  H47 non d ame      -9.119  11.745  65.225  0.00  0.00     0.082 H 
ATOM     60  H48 non d ame      -9.720   9.991  65.581  0.00  0.00     0.082 H 
BRANCH  58  61
ATOM     61  C35 non d ame      -8.887  10.323  63.615  0.00  0.00    -0.034 A 
ATOM     62  C30 non d ame      -8.476   8.997  63.527  0.00  0.00    -0.075 A 
ATOM     63  C31 non d ame      -7.828   8.542  62.380  0.00  0.00    -0.082 A 
ATOM     64  H49 non d ame      -8.660   8.315  64.356  0.00  0.00     0.084 H 
ATOM     65  C32 non d ame      -7.590   9.419  61.318  0.00  0.00    -0.083 A 
ATOM     66  H50 non d ame      -7.509   7.502  62.313  0.00  0.00     0.083 H 
ATOM     67  C33 non d ame      -8.000  10.742  61.411  0.00  0.00    -0.082 A 
ATOM     68  H51 non d ame      -7.085   9.071  60.417  0.00  0.00     0.083 H 
ATOM     69  C34 non d ame      -8.650  11.201  62.556  0.00  0.00    -0.075 A 
ATOM     70  H52 non d ame      -7.811  11.425  60.582  0.00  0.00     0.083 H 
ATOM     71  H53 non d ame      -8.969  12.242  62.621  0.00  0.00     0.084 H 
ENDBRANCH  58  61
ENDBRANCH  57  58
ENDBRANCH  55  57
ENDBRANCH  52  55
ENDBRANCH  49  52
ENDBRANCH  47  49
BRANCH  47  72
ATOM     72  C24 non d ame      -9.220  15.953  67.134  0.00  0.00    -0.039 C 
ATOM     73  H35 non d ame      -8.815  15.334  67.935  0.00  0.00     0.036 H 
ATOM     74  H36 non d ame      -8.827  15.859  66.122  0.00  0.00     0.036 H 
BRANCH  72  75
ATOM     75  C25 non d ame      -9.029  17.481  67.576  0.00  0.00    -0.001 C 
ATOM     76  C26 non d ame     -10.479  18.256  67.558  0.00  0.00    -0.035 C 
ATOM     77  C27 non d ame     -10.357  19.394  66.835  0.00  0.00     0.085 C 
ATOM     78  H38 non d ame     -11.207  17.673  66.994  0.00  0.00     0.036 H 
ATOM     79  H39 non d ame     -10.725  18.613  68.558  0.00  0.00     0.036 H 
ATOM     80  N5  non d ame      -9.049  19.305  66.087  0.00  0.00    -0.049 N 
ATOM     81  H40 non d ame     -11.178  19.375  66.118  0.00  0.00     0.075 H 
ATOM     82  H41 non d ame     -10.292  20.199  67.568  0.00  0.00     0.075 H 
ATOM     83  C28 non d ame      -8.224  18.101  66.778  0.00  0.00     0.193 C 
ATOM     84  H42 non d ame      -9.278  19.036  65.141  0.00  0.00     0.280 HD
ATOM     85  H43 non d ame      -8.559  20.171  66.261  0.00  0.00     0.280 HD
ATOM     86  H44 non d ame      -7.397  18.314  67.455  0.00  0.00     0.129 H 
ATOM     87  H37 non d ame      -8.426  17.577  68.479  0.00  0.00     0.046 H 
BRANCH  83  88
ATOM     88  O6  non d ame      -7.685  17.236  65.777  0.00  0.00    -0.369 OA
ATOM     89  H45 non d ame      -8.291  16.509  65.622  0.00  0.00     0.212 HD
ENDBRANCH  83  88
ENDBRANCH  72  75
ENDBRANCH  47  72
ENDBRANCH  45  47
ENDBRANCH   1  43
BRANCH   1  90
ATOM     90  C16 non d ame     -11.633  14.730  71.727  0.00  0.00    -0.035 C 
ATOM     91  H21 non d ame     -11.389  13.829  72.292  0.00  0.00     0.037 H 
ATOM     92  H22 non d ame     -10.839  15.402  71.406  0.00  0.00     0.037 H 
BRANCH  90  93
ATOM     93  C17 non d ame     -12.586  15.572  72.633  0.00  0.00    -0.059 C 
ATOM     94  H23 non d ame     -12.333  16.623  72.492  0.00  0.00     0.038 H 
BRANCH  93  95
ATOM     95  C18 non d ame     -14.087  15.387  72.243  0.00  0.00    -0.073 C 
ATOM     96  H24 non d ame     -14.445  16.285  71.739  0.00  0.00     0.028 H 
ATOM     97  H25 non d ame     -14.186  14.532  71.574  0.00  0.00     0.028 H 
ATOM     98  H26 non d ame     -14.678  15.214  73.142  0.00  0.00     0.028 H 
ENDBRANCH  93  95
BRANCH  93  99
ATOM     99  C19 non d ame     -12.363  15.246  74.113  0.00  0.00    -0.073 C 
ATOM    100  H27 non d ame     -11.812  14.310  74.199  0.00  0.00     0.028 H 
ATOM    101  H28 non d ame     -11.793  16.049  74.579  0.00  0.00     0.028 H 
ATOM    102  H29 non d ame     -13.327  15.147  74.612  0.00  0.00     0.028 H 
ENDBRANCH  93  99
ENDBRANCH  90  93
ENDBRANCH   1  90
TORSDOF 26
ENDMDL
MODEL 4
REMARK VINA RESULT:      -6.3      2.282      8.038
REMARK  26 active torsions:
REMARK  status: ('A' for Active; 'I' for Inactive)
REMARK    1  A    between atoms: C2_2  and  C3_3 
REMARK    2  A    between atoms: C4_6  and  C5_7 
REMARK       I    between atoms: C5_7  and  N2_9 
REMARK    3  A    between atoms: N2_9  and  C6_10 
REMARK    4  A    between atoms: C6_10  and  C7_11 
REMARK    5  A    between atoms: C6_10  and  C8_13 
REMARK       I    between atoms: C7_11  and  N3_14 
REMARK    6  A    between atoms: N3_14  and  C9_15 
REMARK    7  A    between atoms: C9_15  and  C10_16 
REMARK    8  A    between atoms: C9_15  and  C11_18 
REMARK       I    between atoms: C10_16  and  N4_21 
REMARK    9  A    between atoms: C11_18  and  C12_19 
REMARK   10  A    between atoms: C11_18  and  C13_20 
REMARK   11  A    between atoms: N4_21  and  C14_22 
REMARK   12  A    between atoms: C14_22  and  C15_23 
REMARK   13  A    between atoms: C14_22  and  C16_25 
REMARK       I    between atoms: C15_23  and  N6_40 
REMARK   14  A    between atoms: C16_25  and  C17_26 
REMARK   15  A    between atoms: C17_26  and  C18_27 
REMARK   16  A    between atoms: C17_26  and  C19_28 
REMARK   17  A    between atoms: C20_29  and  C21_30 
REMARK   18  A    between atoms: C20_29  and  C24_33 
REMARK   19  A    between atoms: C20_29  and  N6_40 
REMARK   20  A    between atoms: C21_30  and  C22_31 
REMARK   21  A    between atoms: C22_31  and  C23_32 
REMARK   22  A    between atoms: C23_32  and  O8_43 
REMARK   23  A    between atoms: C24_33  and  C25_34 
REMARK   24  A    between atoms: C28_38  and  O6_39 
REMARK   25  A    between atoms: C29_42  and  O8_43 
REMARK   26  A    between atoms: C29_42  and  C35_49 
ROOT
ATOM      1  C14 non d ame      -6.024  15.730  67.625  0.00  0.00     0.089 C 
ATOM      2  H20 non d ame      -5.552  16.105  66.718  0.00  0.00     0.087 H 
ENDROOT
BRANCH   1   3
ATOM      3  N4  non d ame      -7.454  15.974  67.509  0.00  0.00    -0.346 N 
ATOM      4  C10 non d ame      -7.984  16.902  66.445  0.00  0.00     0.241 C 
ATOM      5  O4  non d ame      -7.240  17.443  65.696  0.00  0.00    -0.271 OA
ATOM      6  H19 non d ame      -8.070  15.505  68.159  0.00  0.00     0.163 HD
BRANCH   4   7
ATOM      7  C9  non d ame      -9.467  17.139  66.336  0.00  0.00     0.092 C 
ATOM      8  H11 non d ame      -9.662  17.817  65.505  0.00  0.00     0.088 H 
BRANCH   7   9
ATOM      9  N3  non d ame     -10.143  15.874  66.029  0.00  0.00    -0.346 N 
ATOM     10  C7  non d ame     -11.055  15.796  64.915  0.00  0.00     0.240 C 
ATOM     11  O3  non d ame     -11.259  16.741  64.255  0.00  0.00    -0.271 OA
ATOM     12  H10 non d ame      -9.979  15.051  66.590  0.00  0.00     0.163 HD
BRANCH  10  13
ATOM     13  C6  non d ame     -11.774  14.448  64.596  0.00  0.00     0.086 C 
ATOM     14  H6  non d ame     -12.370  14.493  63.684  0.00  0.00     0.086 H 
BRANCH  13  15
ATOM     15  N2  non d ame     -10.770  13.418  64.385  0.00  0.00    -0.343 N 
ATOM     16  C5  non d ame     -11.128  12.203  63.649  0.00  0.00     0.273 C 
ATOM     17  O2  non d ame     -12.225  12.064  63.233  0.00  0.00    -0.266 OA
ATOM     18  H5  non d ame      -9.836  13.544  64.745  0.00  0.00     0.163 HD
BRANCH  16  19
ATOM     19  C4  non d ame     -10.077  11.106  63.416  0.00  0.00     0.154 A 
ATOM     20  C1  non d ame      -9.718  10.049  64.312  0.00  0.00    -0.017 A 
ATOM     21  C2  non d ame      -8.715   9.322  63.633  0.00  0.00     0.077 A 
ATOM     22  H1  non d ame     -10.123   9.842  65.303  0.00  0.00     0.091 H 
ATOM     23  O1  non d ame      -8.528   9.901  62.482  0.00  0.00    -0.218 OA
ATOM     24  N1  non d ame      -9.312  10.945  62.333  0.00  0.00    -0.123 NA
BRANCH  21  25
ATOM     25  C3  non d ame      -7.989   8.089  64.151  0.00  0.00    -0.029 C 
ATOM     26  H2  non d ame      -7.003   8.025  63.689  0.00  0.00     0.036 H 
ATOM     27  H3  non d ame      -7.878   8.160  65.233  0.00  0.00     0.036 H 
ATOM     28  H4  non d ame      -8.564   7.196  63.904  0.00  0.00     0.036 H 
ENDBRANCH  21  25
ENDBRANCH  16  19
ENDBRANCH  13  15
BRANCH  13  29
ATOM     29  C8  non d ame     -12.670  14.068  65.746  0.00  0.00    -0.049 C 
ATOM     30  H7  non d ame     -12.175  14.308  66.688  0.00  0.00     0.030 H 
ATOM     31  H8  non d ame     -13.606  14.623  65.676  0.00  0.00     0.030 H 
ATOM     32  H9  non d ame     -12.876  12.999  65.708  0.00  0.00     0.030 H 
ENDBRANCH  13  29
ENDBRANCH  10  13
ENDBRANCH   7   9
BRANCH   7  33
ATOM     33  C11 non d ame     -10.005  17.697  67.686  0.00  0.00    -0.033 C 
ATOM     34  H12 non d ame      -9.153  17.813  68.356  0.00  0.00     0.042 H 
BRANCH  33  35
ATOM     35  C12 non d ame     -10.652  19.105  67.501  0.00  0.00    -0.071 C 
ATOM     36  H13 non d ame     -11.539  19.183  68.130  0.00  0.00     0.028 H 
ATOM     37  H14 non d ame      -9.935  19.875  67.787  0.00  0.00     0.028 H 
ATOM     38  H15 non d ame     -10.932  19.241  66.457  0.00  0.00     0.028 H 
ENDBRANCH  33  35
BRANCH  33  39
ATOM     39  C13 non d ame     -11.007  16.696  68.345  0.00  0.00    -0.071 C 
ATOM     40  H16 non d ame     -10.513  15.737  68.500  0.00  0.00     0.028 H 
ATOM     41  H17 non d ame     -11.339  17.093  69.305  0.00  0.00     0.028 H 
ATOM     42  H18 non d ame     -11.867  16.560  67.690  0.00  0.00     0.028 H 
ENDBRANCH  33  39
ENDBRANCH   7  33
ENDBRANCH   4   7
ENDBRANCH   1   3
BRANCH   1  43
ATOM     43  C15 non d ame      -5.796  14.203  67.818  0.00  0.00     0.240 C 
ATOM     44  O5  non d ame      -4.971  13.642  67.172  0.00  0.00    -0.271 OA
ATOM     45  N6  non d ame      -6.600  13.441  68.816  0.00  0.00    -0.355 N 
ATOM     46  H46 non d ame      -7.301  13.907  69.374  0.00  0.00     0.162 HD
BRANCH  45  47
ATOM     47  C20 non d ame      -6.371  11.990  68.988  0.00  0.00     0.013 C 
ATOM     48  H30 non d ame      -5.650  11.673  68.235  0.00  0.00     0.072 H 
BRANCH  47  49
ATOM     49  C21 non d ame      -7.676  11.251  68.796  0.00  0.00    -0.038 C 
ATOM     50  H31 non d ame      -7.414  10.193  68.766  0.00  0.00     0.036 H 
ATOM     51  H32 non d ame      -8.343  11.626  69.573  0.00  0.00     0.036 H 
BRANCH  49  52
ATOM     52  C22 non d ame      -8.354  11.572  67.447  0.00  0.00     0.018 C 
ATOM     53  H33 non d ame      -7.647  12.199  66.902  0.00  0.00     0.048 H 
ATOM     54  H34 non d ame      -8.662  10.611  67.035  0.00  0.00     0.048 H 
BRANCH  52  55
ATOM     55  C23 non d ame      -9.653  12.416  67.585  0.00  0.00     0.259 C 
ATOM     56  O7  non d ame      -9.610  13.601  67.527  0.00  0.00    -0.265 OA
BRANCH  55  57
ATOM     57  O8  non d ame     -10.894  11.755  67.797  0.00  0.00    -0.317 OA
BRANCH  57  58
ATOM     58  C29 non d ame     -11.636  12.252  68.914  0.00  0.00     0.052 C 
ATOM     59  H47 non d ame     -11.009  13.019  69.368  0.00  0.00     0.082 H 
ATOM     60  H48 non d ame     -12.619  12.514  68.522  0.00  0.00     0.082 H 
BRANCH  58  61
ATOM     61  C35 non d ame     -11.808  11.092  69.930  0.00  0.00    -0.034 A 
ATOM     62  C30 non d ame     -12.778  11.173  70.923  0.00  0.00    -0.075 A 
ATOM     63  C31 non d ame     -12.932  10.131  71.836  0.00  0.00    -0.082 A 
ATOM     64  H49 non d ame     -13.418  12.052  70.986  0.00  0.00     0.084 H 
ATOM     65  C32 non d ame     -12.109   9.005  71.754  0.00  0.00    -0.083 A 
ATOM     66  H50 non d ame     -13.695  10.197  72.611  0.00  0.00     0.083 H 
ATOM     67  C33 non d ame     -11.139   8.929  70.764  0.00  0.00    -0.082 A 
ATOM     68  H51 non d ame     -12.222   8.185  72.464  0.00  0.00     0.083 H 
ATOM     69  C34 non d ame     -10.983   9.968  69.848  0.00  0.00    -0.075 A 
ATOM     70  H52 non d ame     -10.496   8.050  70.705  0.00  0.00     0.083 H 
ATOM     71  H53 non d ame     -10.219   9.901  69.072  0.00  0.00     0.084 H 
ENDBRANCH  58  61
ENDBRANCH  57  58
ENDBRANCH  55  57
ENDBRANCH  52  55
ENDBRANCH  49  52
ENDBRANCH  47  49
BRANCH  47  72
ATOM     72  C24 non d ame      -5.830  11.716  70.389  0.00  0.00    -0.039 C 
ATOM     73  H35 non d ame      -6.471  12.283  71.064  0.00  0.00     0.036 H 
ATOM     74  H36 non d ame      -5.777  10.630  70.473  0.00  0.00     0.036 H 
BRANCH  72  75
ATOM     75  C25 non d ame      -4.340  12.277  70.570  0.00  0.00    -0.001 C 
ATOM     76  C26 non d ame      -3.297  11.030  70.813  0.00  0.00    -0.035 C 
ATOM     77  C27 non d ame      -2.559  11.287  71.919  0.00  0.00     0.085 C 
ATOM     78  H38 non d ame      -3.849  10.129  71.080  0.00  0.00     0.036 H 
ATOM     79  H39 non d ame      -2.557  10.999  70.013  0.00  0.00     0.036 H 
ATOM     80  N5  non d ame      -3.224  12.437  72.636  0.00  0.00    -0.049 N 
ATOM     81  H40 non d ame      -2.634  10.392  72.536  0.00  0.00     0.075 H 
ATOM     82  H41 non d ame      -1.587  11.615  71.550  0.00  0.00     0.075 H 
ATOM     83  C28 non d ame      -4.263  13.079  71.580  0.00  0.00     0.193 C 
ATOM     84  H42 non d ame      -3.750  12.033  73.398  0.00  0.00     0.280 HD
ATOM     85  H43 non d ame      -2.499  13.114  72.826  0.00  0.00     0.280 HD
ATOM     86  H44 non d ame      -4.028  14.015  71.072  0.00  0.00     0.129 H 
ATOM     87  H37 non d ame      -4.076  13.002  69.800  0.00  0.00     0.046 H 
BRANCH  83  88
ATOM     88  O6  non d ame      -5.531  13.288  72.201  0.00  0.00    -0.369 OA
ATOM     89  H45 non d ame      -6.026  13.944  71.706  0.00  0.00     0.212 HD
ENDBRANCH  83  88
ENDBRANCH  72  75
ENDBRANCH  47  72
ENDBRANCH  45  47
ENDBRANCH   1  43
BRANCH   1  90
ATOM     90  C16 non d ame      -5.488  16.483  68.833  0.00  0.00    -0.035 C 
ATOM     91  H21 non d ame      -6.307  16.493  69.553  0.00  0.00     0.037 H 
ATOM     92  H22 non d ame      -4.548  15.993  69.085  0.00  0.00     0.037 H 
BRANCH  90  93
ATOM     93  C17 non d ame      -5.143  17.977  68.537  0.00  0.00    -0.059 C 
ATOM     94  H23 non d ame      -5.092  18.096  67.455  0.00  0.00     0.038 H 
BRANCH  93  95
ATOM     95  C18 non d ame      -6.238  18.953  69.074  0.00  0.00    -0.073 C 
ATOM     96  H24 non d ame      -7.138  18.389  69.320  0.00  0.00     0.028 H 
ATOM     97  H25 non d ame      -5.869  19.456  69.967  0.00  0.00     0.028 H 
ATOM     98  H26 non d ame      -6.470  19.694  68.310  0.00  0.00     0.028 H 
ENDBRANCH  93  95
BRANCH  93  99
ATOM     99  C19 non d ame      -3.766  18.341  69.098  0.00  0.00    -0.073 C 
ATOM    100  H27 non d ame      -3.833  19.282  69.644  0.00  0.00     0.028 H 
ATOM    101  H28 non d ame      -3.428  17.553  69.772  0.00  0.00     0.028 H 
ATOM    102  H29 non d ame      -3.056  18.447  68.278  0.00  0.00     0.028 H 
ENDBRANCH  93  99
ENDBRANCH  90  93
ENDBRANCH   1  90
TORSDOF 26
ENDMDL
MODEL 5
REMARK VINA RESULT:      -6.3      3.980      9.660
REMARK  26 active torsions:
REMARK  status: ('A' for Active; 'I' for Inactive)
REMARK    1  A    between atoms: C2_2  and  C3_3 
REMARK    2  A    between atoms: C4_6  and  C5_7 
REMARK       I    between atoms: C5_7  and  N2_9 
REMARK    3  A    between atoms: N2_9  and  C6_10 
REMARK    4  A    between atoms: C6_10  and  C7_11 
REMARK    5  A    between atoms: C6_10  and  C8_13 
REMARK       I    between atoms: C7_11  and  N3_14 
REMARK    6  A    between atoms: N3_14  and  C9_15 
REMARK    7  A    between atoms: C9_15  and  C10_16 
REMARK    8  A    between atoms: C9_15  and  C11_18 
REMARK       I    between atoms: C10_16  and  N4_21 
REMARK    9  A    between atoms: C11_18  and  C12_19 
REMARK   10  A    between atoms: C11_18  and  C13_20 
REMARK   11  A    between atoms: N4_21  and  C14_22 
REMARK   12  A    between atoms: C14_22  and  C15_23 
REMARK   13  A    between atoms: C14_22  and  C16_25 
REMARK       I    between atoms: C15_23  and  N6_40 
REMARK   14  A    between atoms: C16_25  and  C17_26 
REMARK   15  A    between atoms: C17_26  and  C18_27 
REMARK   16  A    between atoms: C17_26  and  C19_28 
REMARK   17  A    between atoms: C20_29  and  C21_30 
REMARK   18  A    between atoms: C20_29  and  C24_33 
REMARK   19  A    between atoms: C20_29  and  N6_40 
REMARK   20  A    between atoms: C21_30  and  C22_31 
REMARK   21  A    between atoms: C22_31  and  C23_32 
REMARK   22  A    between atoms: C23_32  and  O8_43 
REMARK   23  A    between atoms: C24_33  and  C25_34 
REMARK   24  A    between atoms: C28_38  and  O6_39 
REMARK   25  A    between atoms: C29_42  and  O8_43 
REMARK   26  A    between atoms: C29_42  and  C35_49 
ROOT
ATOM      1  C14 non d ame      -8.260   6.288  63.756  0.00  0.00     0.089 C 
ATOM      2  H20 non d ame      -8.932   6.415  62.907  0.00  0.00     0.087 H 
ENDROOT
BRANCH   1   3
ATOM      3  N4  non d ame      -8.053   7.599  64.352  0.00  0.00    -0.346 N 
ATOM      4  C10 non d ame      -8.287   8.850  63.543  0.00  0.00     0.241 C 
ATOM      5  O4  non d ame      -8.640   8.775  62.411  0.00  0.00    -0.271 OA
ATOM      6  H19 non d ame      -7.751   7.641  65.316  0.00  0.00     0.163 HD
BRANCH   4   7
ATOM      7  C9  non d ame      -8.073  10.199  64.177  0.00  0.00     0.092 C 
ATOM      8  H11 non d ame      -7.675  10.887  63.431  0.00  0.00     0.088 H 
BRANCH   7   9
ATOM      9  N3  non d ame      -9.362  10.741  64.620  0.00  0.00    -0.346 N 
ATOM     10  C7  non d ame     -10.080  11.669  63.783  0.00  0.00     0.240 C 
ATOM     11  O3  non d ame      -9.635  11.993  62.749  0.00  0.00    -0.271 OA
ATOM     12  H10 non d ame      -9.757  10.472  65.509  0.00  0.00     0.163 HD
BRANCH  10  13
ATOM     13  C6  non d ame     -11.449  12.245  64.262  0.00  0.00     0.086 C 
ATOM     14  H6  non d ame     -11.698  11.948  65.280  0.00  0.00     0.086 H 
BRANCH  13  15
ATOM     15  N2  non d ame     -11.377  13.696  64.257  0.00  0.00    -0.343 N 
ATOM     16  C5  non d ame     -10.850  14.396  65.432  0.00  0.00     0.273 C 
ATOM     17  O2  non d ame     -10.489  13.782  66.375  0.00  0.00    -0.266 OA
ATOM     18  H5  non d ame     -11.689  14.214  63.448  0.00  0.00     0.163 HD
BRANCH  16  19
ATOM     19  C4  non d ame     -10.765  15.930  65.440  0.00  0.00     0.154 A 
ATOM     20  C1  non d ame     -10.226  16.760  66.473  0.00  0.00    -0.017 A 
ATOM     21  C2  non d ame     -10.385  18.082  65.999  0.00  0.00     0.077 A 
ATOM     22  H1  non d ame      -9.786  16.452  67.422  0.00  0.00     0.091 H 
ATOM     23  O1  non d ame     -10.949  18.007  64.828  0.00  0.00    -0.218 OA
ATOM     24  N1  non d ame     -11.182  16.762  64.481  0.00  0.00    -0.123 NA
BRANCH  21  25
ATOM     25  C3  non d ame      -9.970  19.355  66.722  0.00  0.00    -0.029 C 
ATOM     26  H2  non d ame     -10.859  19.886  67.064  0.00  0.00     0.036 H 
ATOM     27  H3  non d ame      -9.348  19.100  67.579  0.00  0.00     0.036 H 
ATOM     28  H4  non d ame      -9.405  19.993  66.042  0.00  0.00     0.036 H 
ENDBRANCH  21  25
ENDBRANCH  16  19
ENDBRANCH  13  15
BRANCH  13  29
ATOM     29  C8  non d ame     -12.544  11.780  63.337  0.00  0.00    -0.049 C 
ATOM     30  H7  non d ame     -12.116  11.512  62.371  0.00  0.00     0.030 H 
ATOM     31  H8  non d ame     -13.039  10.909  63.769  0.00  0.00     0.030 H 
ATOM     32  H9  non d ame     -13.270  12.581  63.202  0.00  0.00     0.030 H 
ENDBRANCH  13  29
ENDBRANCH  10  13
ENDBRANCH   7   9
BRANCH   7  33
ATOM     33  C11 non d ame      -7.126  10.051  65.403  0.00  0.00    -0.033 C 
ATOM     34  H12 non d ame      -7.227   9.031  65.775  0.00  0.00     0.042 H 
BRANCH  33  35
ATOM     35  C12 non d ame      -5.634  10.257  64.997  0.00  0.00    -0.071 C 
ATOM     36  H13 non d ame      -5.334   9.469  64.306  0.00  0.00     0.028 H 
ATOM     37  H14 non d ame      -5.519  11.227  64.513  0.00  0.00     0.028 H 
ATOM     38  H15 non d ame      -5.007  10.219  65.887  0.00  0.00     0.028 H 
ENDBRANCH  33  35
BRANCH  33  39
ATOM     39  C13 non d ame      -7.540  11.028  66.550  0.00  0.00    -0.071 C 
ATOM     40  H16 non d ame      -7.637  10.473  67.483  0.00  0.00     0.028 H 
ATOM     41  H17 non d ame      -6.779  11.800  66.664  0.00  0.00     0.028 H 
ATOM     42  H18 non d ame      -8.495  11.492  66.303  0.00  0.00     0.028 H 
ENDBRANCH  33  39
ENDBRANCH   7  33
ENDBRANCH   4   7
ENDBRANCH   1   3
BRANCH   1  43
ATOM     43  C15 non d ame      -8.854   5.340  64.837  0.00  0.00     0.240 C 
ATOM     44  O5  non d ame      -9.382   4.326  64.510  0.00  0.00    -0.271 OA
ATOM     45  N6  non d ame      -8.757   5.692  66.283  0.00  0.00    -0.355 N 
ATOM     46  H46 non d ame      -8.308   6.548  66.574  0.00  0.00     0.162 HD
BRANCH  45  47
ATOM     47  C20 non d ame      -9.325   4.779  67.299  0.00  0.00     0.013 C 
ATOM     48  H30 non d ame      -9.738   3.915  66.779  0.00  0.00     0.072 H 
BRANCH  47  49
ATOM     49  C21 non d ame     -10.419   5.495  68.058  0.00  0.00    -0.038 C 
ATOM     50  H31 non d ame     -10.260   6.558  67.872  0.00  0.00     0.036 H 
ATOM     51  H32 non d ame     -11.351   5.020  67.749  0.00  0.00     0.036 H 
BRANCH  49  52
ATOM     52  C22 non d ame     -10.315   5.298  69.586  0.00  0.00     0.018 C 
ATOM     53  H33 non d ame     -10.870   4.385  69.805  0.00  0.00     0.048 H 
ATOM     54  H34 non d ame      -9.252   5.360  69.820  0.00  0.00     0.048 H 
BRANCH  52  55
ATOM     55  C23 non d ame     -11.002   6.423  70.410  0.00  0.00     0.259 C 
ATOM     56  O7  non d ame     -12.187   6.497  70.456  0.00  0.00    -0.265 OA
BRANCH  55  57
ATOM     57  O8  non d ame     -10.199   7.374  71.098  0.00  0.00    -0.317 OA
BRANCH  57  58
ATOM     58  C29 non d ame      -9.376   8.171  70.241  0.00  0.00     0.052 C 
ATOM     59  H47 non d ame      -8.638   8.639  70.892  0.00  0.00     0.082 H 
ATOM     60  H48 non d ame      -9.052   7.505  69.441  0.00  0.00     0.082 H 
BRANCH  58  61
ATOM     61  C35 non d ame     -10.264   9.284  69.624  0.00  0.00    -0.034 A 
ATOM     62  C30 non d ame     -11.012  10.116  70.450  0.00  0.00    -0.075 A 
ATOM     63  C31 non d ame     -11.810  11.116  69.896  0.00  0.00    -0.082 A 
ATOM     64  H49 non d ame     -10.973   9.985  71.531  0.00  0.00     0.084 H 
ATOM     65  C32 non d ame     -11.860  11.280  68.509  0.00  0.00    -0.083 A 
ATOM     66  H50 non d ame     -12.393  11.768  70.546  0.00  0.00     0.083 H 
ATOM     67  C33 non d ame     -11.114  10.445  67.688  0.00  0.00    -0.082 A 
ATOM     68  H51 non d ame     -12.481  12.060  68.067  0.00  0.00     0.083 H 
ATOM     69  C34 non d ame     -10.314   9.446  68.238  0.00  0.00    -0.075 A 
ATOM     70  H52 non d ame     -11.157  10.574  66.606  0.00  0.00     0.083 H 
ATOM     71  H53 non d ame      -9.730   8.795  67.586  0.00  0.00     0.084 H 
ENDBRANCH  58  61
ENDBRANCH  57  58
ENDBRANCH  55  57
ENDBRANCH  52  55
ENDBRANCH  49  52
ENDBRANCH  47  49
BRANCH  47  72
ATOM     72  C24 non d ame      -8.231   4.343  68.270  0.00  0.00    -0.039 C 
ATOM     73  H35 non d ame      -8.270   5.058  69.092  0.00  0.00     0.036 H 
ATOM     74  H36 non d ame      -8.415   3.285  68.459  0.00  0.00     0.036 H 
BRANCH  72  75
ATOM     75  C25 non d ame      -6.774   4.459  67.612  0.00  0.00    -0.001 C 
ATOM     76  C26 non d ame      -6.199   2.960  67.256  0.00  0.00    -0.035 C 
ATOM     77  C27 non d ame      -4.959   2.831  67.784  0.00  0.00     0.085 C 
ATOM     78  H38 non d ame      -6.780   2.203  67.783  0.00  0.00     0.036 H 
ATOM     79  H39 non d ame      -6.030   2.869  66.183  0.00  0.00     0.036 H 
ATOM     80  N5  non d ame      -4.765   3.981  68.743  0.00  0.00    -0.049 N 
ATOM     81  H40 non d ame      -4.976   1.898  68.347  0.00  0.00     0.075 H 
ATOM     82  H41 non d ame      -4.272   2.950  66.946  0.00  0.00     0.075 H 
ATOM     83  C28 non d ame      -5.943   5.036  68.415  0.00  0.00     0.193 C 
ATOM     84  H42 non d ame      -4.916   3.609  69.670  0.00  0.00     0.280 HD
ATOM     85  H43 non d ame      -3.880   4.405  68.508  0.00  0.00     0.280 HD
ATOM     86  H44 non d ame      -5.730   5.948  67.858  0.00  0.00     0.129 H 
ATOM     87  H37 non d ame      -6.738   5.205  66.819  0.00  0.00     0.046 H 
BRANCH  83  88
ATOM     88  O6  non d ame      -6.571   5.464  69.625  0.00  0.00    -0.369 OA
ATOM     89  H45 non d ame      -5.900   5.734  70.255  0.00  0.00     0.212 HD
ENDBRANCH  83  88
ENDBRANCH  72  75
ENDBRANCH  47  72
ENDBRANCH  45  47
ENDBRANCH   1  43
BRANCH   1  90
ATOM     90  C16 non d ame      -6.923   5.743  63.277  0.00  0.00    -0.035 C 
ATOM     91  H21 non d ame      -6.934   4.685  63.536  0.00  0.00     0.037 H 
ATOM     92  H22 non d ame      -6.845   6.048  62.234  0.00  0.00     0.037 H 
BRANCH  90  93
ATOM     93  C17 non d ame      -5.694   6.365  64.013  0.00  0.00    -0.059 C 
ATOM     94  H23 non d ame      -6.075   7.006  64.808  0.00  0.00     0.038 H 
BRANCH  93  95
ATOM     95  C18 non d ame      -4.788   5.277  64.670  0.00  0.00    -0.073 C 
ATOM     96  H24 non d ame      -4.728   4.408  64.014  0.00  0.00     0.028 H 
ATOM     97  H25 non d ame      -3.788   5.682  64.827  0.00  0.00     0.028 H 
ATOM     98  H26 non d ame      -5.213   4.980  65.629  0.00  0.00     0.028 H 
ENDBRANCH  93  95
BRANCH  93  99
ATOM     99  C19 non d ame      -4.882   7.251  63.065  0.00  0.00    -0.073 C 
ATOM    100  H27 non d ame      -5.535   7.643  62.285  0.00  0.00     0.028 H 
ATOM    101  H28 non d ame      -4.447   8.080  63.625  0.00  0.00     0.028 H 
ATOM    102  H29 non d ame      -4.086   6.663  62.610  0.00  0.00     0.028 H 
ENDBRANCH  93  99
ENDBRANCH  90  93
ENDBRANCH   1  90
TORSDOF 26
ENDMDL
MODEL 6
REMARK VINA RESULT:      -6.2      2.921      7.080
REMARK  26 active torsions:
REMARK  status: ('A' for Active; 'I' for Inactive)
REMARK    1  A    between atoms: C2_2  and  C3_3 
REMARK    2  A    between atoms: C4_6  and  C5_7 
REMARK       I    between atoms: C5_7  and  N2_9 
REMARK    3  A    between atoms: N2_9  and  C6_10 
REMARK    4  A    between atoms: C6_10  and  C7_11 
REMARK    5  A    between atoms: C6_10  and  C8_13 
REMARK       I    between atoms: C7_11  and  N3_14 
REMARK    6  A    between atoms: N3_14  and  C9_15 
REMARK    7  A    between atoms: C9_15  and  C10_16 
REMARK    8  A    between atoms: C9_15  and  C11_18 
REMARK       I    between atoms: C10_16  and  N4_21 
REMARK    9  A    between atoms: C11_18  and  C12_19 
REMARK   10  A    between atoms: C11_18  and  C13_20 
REMARK   11  A    between atoms: N4_21  and  C14_22 
REMARK   12  A    between atoms: C14_22  and  C15_23 
REMARK   13  A    between atoms: C14_22  and  C16_25 
REMARK       I    between atoms: C15_23  and  N6_40 
REMARK   14  A    between atoms: C16_25  and  C17_26 
REMARK   15  A    between atoms: C17_26  and  C18_27 
REMARK   16  A    between atoms: C17_26  and  C19_28 
REMARK   17  A    between atoms: C20_29  and  C21_30 
REMARK   18  A    between atoms: C20_29  and  C24_33 
REMARK   19  A    between atoms: C20_29  and  N6_40 
REMARK   20  A    between atoms: C21_30  and  C22_31 
REMARK   21  A    between atoms: C22_31  and  C23_32 
REMARK   22  A    between atoms: C23_32  and  O8_43 
REMARK   23  A    between atoms: C24_33  and  C25_34 
REMARK   24  A    between atoms: C28_38  and  O6_39 
REMARK   25  A    between atoms: C29_42  and  O8_43 
REMARK   26  A    between atoms: C29_42  and  C35_49 
ROOT
ATOM      1  C14 non d ame     -10.875   9.037  69.914  0.00  0.00     0.089 C 
ATOM      2  H20 non d ame     -11.802   8.670  70.353  0.00  0.00     0.087 H 
ENDROOT
BRANCH   1   3
ATOM      3  N4  non d ame     -10.264   7.931  69.192  0.00  0.00    -0.346 N 
ATOM      4  C10 non d ame     -10.828   6.537  69.314  0.00  0.00     0.241 C 
ATOM      5  O4  non d ame     -11.773   6.331  70.002  0.00  0.00    -0.271 OA
ATOM      6  H19 non d ame      -9.458   8.128  68.615  0.00  0.00     0.163 HD
BRANCH   4   7
ATOM      7  C9  non d ame     -10.186   5.405  68.556  0.00  0.00     0.092 C 
ATOM      8  H11 non d ame     -10.925   4.951  67.897  0.00  0.00     0.088 H 
BRANCH   7   9
ATOM      9  N3  non d ame      -9.114   5.932  67.707  0.00  0.00    -0.346 N 
ATOM     10  C7  non d ame      -9.129   5.680  66.287  0.00  0.00     0.240 C 
ATOM     11  O3  non d ame      -9.996   5.054  65.811  0.00  0.00    -0.271 OA
ATOM     12  H10 non d ame      -8.358   6.471  68.103  0.00  0.00     0.163 HD
BRANCH  10  13
ATOM     13  C6  non d ame      -7.983   6.240  65.389  0.00  0.00     0.086 C 
ATOM     14  H6  non d ame      -7.584   5.496  64.699  0.00  0.00     0.086 H 
BRANCH  13  15
ATOM     15  N2  non d ame      -8.509   7.322  64.574  0.00  0.00    -0.343 N 
ATOM     16  C5  non d ame      -8.947   8.563  65.218  0.00  0.00     0.273 C 
ATOM     17  O2  non d ame      -8.874   8.679  66.391  0.00  0.00    -0.266 OA
ATOM     18  H5  non d ame      -8.570   7.214  63.572  0.00  0.00     0.163 HD
BRANCH  16  19
ATOM     19  C4  non d ame      -9.504   9.716  64.368  0.00  0.00     0.154 A 
ATOM     20  C1  non d ame     -10.437  10.721  64.779  0.00  0.00    -0.017 A 
ATOM     21  C2  non d ame     -10.620  11.535  63.640  0.00  0.00     0.077 A 
ATOM     22  H1  non d ame     -10.909  10.840  65.755  0.00  0.00     0.091 H 
ATOM     23  O1  non d ame      -9.874  11.048  62.691  0.00  0.00    -0.218 OA
ATOM     24  N1  non d ame      -9.214   9.985  63.092  0.00  0.00    -0.123 NA
BRANCH  21  25
ATOM     25  C3  non d ame     -11.522  12.758  63.541  0.00  0.00    -0.029 C 
ATOM     26  H2  non d ame     -12.299  12.578  62.797  0.00  0.00     0.036 H 
ATOM     27  H3  non d ame     -11.983  12.948  64.510  0.00  0.00     0.036 H 
ATOM     28  H4  non d ame     -10.929  13.624  63.245  0.00  0.00     0.036 H 
ENDBRANCH  21  25
ENDBRANCH  16  19
ENDBRANCH  13  15
BRANCH  13  29
ATOM     29  C8  non d ame      -6.861   6.748  66.258  0.00  0.00    -0.049 C 
ATOM     30  H7  non d ame      -7.255   7.025  67.236  0.00  0.00     0.030 H 
ATOM     31  H8  non d ame      -6.111   5.966  66.377  0.00  0.00     0.030 H 
ATOM     32  H9  non d ame      -6.406   7.620  65.791  0.00  0.00     0.030 H 
ENDBRANCH  13  29
ENDBRANCH  10  13
ENDBRANCH   7   9
BRANCH   7  33
ATOM     33  C11 non d ame      -9.590   4.378  69.563  0.00  0.00    -0.033 C 
ATOM     34  H12 non d ame     -10.312   4.254  70.371  0.00  0.00     0.042 H 
BRANCH  33  35
ATOM     35  C12 non d ame      -9.387   2.982  68.897  0.00  0.00    -0.071 C 
ATOM     36  H13 non d ame      -9.746   3.014  67.869  0.00  0.00     0.028 H 
ATOM     37  H14 non d ame      -8.327   2.727  68.904  0.00  0.00     0.028 H 
ATOM     38  H15 non d ame      -9.945   2.230  69.455  0.00  0.00     0.028 H 
ENDBRANCH  33  35
BRANCH  33  39
ATOM     39  C13 non d ame      -8.258   4.911  70.182  0.00  0.00    -0.071 C 
ATOM     40  H16 non d ame      -7.667   5.398  69.408  0.00  0.00     0.028 H 
ATOM     41  H17 non d ame      -8.485   5.627  70.972  0.00  0.00     0.028 H 
ATOM     42  H18 non d ame      -7.694   4.076  70.599  0.00  0.00     0.028 H 
ENDBRANCH  33  39
ENDBRANCH   7  33
ENDBRANCH   4   7
ENDBRANCH   1   3
BRANCH   1  43
ATOM     43  C15 non d ame     -11.120  10.205  68.915  0.00  0.00     0.240 C 
ATOM     44  O5  non d ame     -11.578   9.978  67.841  0.00  0.00    -0.271 OA
ATOM     45  N6  non d ame     -10.792  11.607  69.300  0.00  0.00    -0.355 N 
ATOM     46  H46 non d ame     -10.406  11.812  70.211  0.00  0.00     0.162 HD
BRANCH  45  47
ATOM     47  C20 non d ame     -11.031  12.705  68.340  0.00  0.00     0.013 C 
ATOM     48  H30 non d ame     -11.300  12.261  67.382  0.00  0.00     0.072 H 
BRANCH  47  49
ATOM     49  C21 non d ame      -9.769  13.525  68.192  0.00  0.00    -0.038 C 
ATOM     50  H31 non d ame     -10.006  14.508  68.600  0.00  0.00     0.036 H 
ATOM     51  H32 non d ame      -8.975  12.925  68.639  0.00  0.00     0.036 H 
BRANCH  49  52
ATOM     52  C22 non d ame      -9.368  13.748  66.718  0.00  0.00     0.018 C 
ATOM     53  H33 non d ame      -8.284  13.867  66.720  0.00  0.00     0.048 H 
ATOM     54  H34 non d ame      -9.825  12.930  66.160  0.00  0.00     0.048 H 
BRANCH  52  55
ATOM     55  C23 non d ame      -9.940  15.057  66.105  0.00  0.00     0.259 C 
ATOM     56  O7  non d ame     -11.111  15.259  66.102  0.00  0.00    -0.265 OA
BRANCH  55  57
ATOM     57  O8  non d ame      -9.049  16.007  65.534  0.00  0.00    -0.317 OA
BRANCH  57  58
ATOM     58  C29 non d ame      -8.182  16.637  66.482  0.00  0.00     0.052 C 
ATOM     59  H47 non d ame      -8.062  15.921  67.294  0.00  0.00     0.082 H 
ATOM     60  H48 non d ame      -7.312  16.964  65.912  0.00  0.00     0.082 H 
BRANCH  58  61
ATOM     61  C35 non d ame      -8.908  17.892  67.035  0.00  0.00    -0.034 A 
ATOM     62  C30 non d ame      -8.724  18.275  68.359  0.00  0.00    -0.075 A 
ATOM     63  C31 non d ame      -9.376  19.402  68.857  0.00  0.00    -0.082 A 
ATOM     64  H49 non d ame      -8.071  17.693  69.007  0.00  0.00     0.084 H 
ATOM     65  C32 non d ame     -10.217  20.146  68.024  0.00  0.00    -0.083 A 
ATOM     66  H50 non d ame      -9.229  19.701  69.894  0.00  0.00     0.083 H 
ATOM     67  C33 non d ame     -10.399  19.758  66.703  0.00  0.00    -0.082 A 
ATOM     68  H51 non d ame     -10.730  21.029  68.404  0.00  0.00     0.083 H 
ATOM     69  C34 non d ame      -9.747  18.633  66.202  0.00  0.00    -0.075 A 
ATOM     70  H52 non d ame     -11.057  20.340  66.057  0.00  0.00     0.083 H 
ATOM     71  H53 non d ame      -9.895  18.336  65.163  0.00  0.00     0.084 H 
ENDBRANCH  58  61
ENDBRANCH  57  58
ENDBRANCH  55  57
ENDBRANCH  52  55
ENDBRANCH  49  52
ENDBRANCH  47  49
BRANCH  47  72
ATOM     72  C24 non d ame     -12.162  13.597  68.847  0.00  0.00    -0.039 C 
ATOM     73  H35 non d ame     -12.214  14.429  68.145  0.00  0.00     0.036 H 
ATOM     74  H36 non d ame     -13.020  12.936  68.973  0.00  0.00     0.036 H 
BRANCH  72  75
ATOM     75  C25 non d ame     -11.828  14.215  70.287  0.00  0.00    -0.001 C 
ATOM     76  C26 non d ame     -12.831  13.572  71.420  0.00  0.00    -0.035 C 
ATOM     77  C27 non d ame     -13.401  14.580  72.122  0.00  0.00     0.085 C 
ATOM     78  H38 non d ame     -13.679  13.088  70.936  0.00  0.00     0.036 H 
ATOM     79  H39 non d ame     -12.252  13.033  72.170  0.00  0.00     0.036 H 
ATOM     80  N5  non d ame     -13.130  15.856  71.362  0.00  0.00    -0.049 N 
ATOM     81  H40 non d ame     -14.472  14.377  72.108  0.00  0.00     0.075 H 
ATOM     82  H41 non d ame     -12.865  14.612  73.071  0.00  0.00     0.075 H 
ATOM     83  C28 non d ame     -11.976  15.498  70.291  0.00  0.00     0.193 C 
ATOM     84  H42 non d ame     -13.979  16.074  70.859  0.00  0.00     0.280 HD
ATOM     85  H43 non d ame     -12.756  16.514  72.030  0.00  0.00     0.280 HD
ATOM     86  H44 non d ame     -10.947  15.817  70.459  0.00  0.00     0.129 H 
ATOM     87  H37 non d ame     -10.760  14.201  70.505  0.00  0.00     0.046 H 
BRANCH  83  88
ATOM     88  O6  non d ame     -12.327  16.004  69.002  0.00  0.00    -0.369 OA
ATOM     89  H45 non d ame     -11.557  15.985  68.430  0.00  0.00     0.212 HD
ENDBRANCH  83  88
ENDBRANCH  72  75
ENDBRANCH  47  72
ENDBRANCH  45  47
ENDBRANCH   1  43
BRANCH   1  90
ATOM     90  C16 non d ame      -9.930   9.495  71.014  0.00  0.00    -0.035 C 
ATOM     91  H21 non d ame      -9.273  10.227  70.543  0.00  0.00     0.037 H 
ATOM     92  H22 non d ame     -10.574   9.794  71.841  0.00  0.00     0.037 H 
BRANCH  90  93
ATOM     93  C17 non d ame      -9.007   8.360  71.560  0.00  0.00    -0.059 C 
ATOM     94  H23 non d ame      -9.164   7.479  70.937  0.00  0.00     0.038 H 
BRANCH  93  95
ATOM     95  C18 non d ame      -7.494   8.739  71.478  0.00  0.00    -0.073 C 
ATOM     96  H24 non d ame      -7.355   9.758  71.840  0.00  0.00     0.028 H 
ATOM     97  H25 non d ame      -6.914   8.053  72.095  0.00  0.00     0.028 H 
ATOM     98  H26 non d ame      -7.157   8.670  70.444  0.00  0.00     0.028 H 
ENDBRANCH  93  95
BRANCH  93  99
ATOM     99  C19 non d ame      -9.398   7.979  72.991  0.00  0.00    -0.073 C 
ATOM    100  H27 non d ame     -10.421   7.605  73.000  0.00  0.00     0.028 H 
ATOM    101  H28 non d ame      -8.724   7.205  73.357  0.00  0.00     0.028 H 
ATOM    102  H29 non d ame      -9.326   8.857  73.632  0.00  0.00     0.028 H 
ENDBRANCH  93  99
ENDBRANCH  90  93
ENDBRANCH   1  90
TORSDOF 26
ENDMDL
MODEL 7
REMARK VINA RESULT:      -6.2      2.798      6.985
REMARK  26 active torsions:
REMARK  status: ('A' for Active; 'I' for Inactive)
REMARK    1  A    between atoms: C2_2  and  C3_3 
REMARK    2  A    between atoms: C4_6  and  C5_7 
REMARK       I    between atoms: C5_7  and  N2_9 
REMARK    3  A    between atoms: N2_9  and  C6_10 
REMARK    4  A    between atoms: C6_10  and  C7_11 
REMARK    5  A    between atoms: C6_10  and  C8_13 
REMARK       I    between atoms: C7_11  and  N3_14 
REMARK    6  A    between atoms: N3_14  and  C9_15 
REMARK    7  A    between atoms: C9_15  and  C10_16 
REMARK    8  A    between atoms: C9_15  and  C11_18 
REMARK       I    between atoms: C10_16  and  N4_21 
REMARK    9  A    between atoms: C11_18  and  C12_19 
REMARK   10  A    between atoms: C11_18  and  C13_20 
REMARK   11  A    between atoms: N4_21  and  C14_22 
REMARK   12  A    between atoms: C14_22  and  C15_23 
REMARK   13  A    between atoms: C14_22  and  C16_25 
REMARK       I    between atoms: C15_23  and  N6_40 
REMARK   14  A    between atoms: C16_25  and  C17_26 
REMARK   15  A    between atoms: C17_26  and  C18_27 
REMARK   16  A    between atoms: C17_26  and  C19_28 
REMARK   17  A    between atoms: C20_29  and  C21_30 
REMARK   18  A    between atoms: C20_29  and  C24_33 
REMARK   19  A    between atoms: C20_29  and  N6_40 
REMARK   20  A    between atoms: C21_30  and  C22_31 
REMARK   21  A    between atoms: C22_31  and  C23_32 
REMARK   22  A    between atoms: C23_32  and  O8_43 
REMARK   23  A    between atoms: C24_33  and  C25_34 
REMARK   24  A    between atoms: C28_38  and  O6_39 
REMARK   25  A    between atoms: C29_42  and  O8_43 
REMARK   26  A    between atoms: C29_42  and  C35_49 
ROOT
ATOM      1  C14 non d ame     -10.716   9.379  69.697  0.00  0.00     0.089 C 
ATOM      2  H20 non d ame     -11.179   8.501  69.247  0.00  0.00     0.087 H 
ENDROOT
BRANCH   1   3
ATOM      3  N4  non d ame      -9.391   9.525  69.113  0.00  0.00    -0.346 N 
ATOM      4  C10 non d ame      -8.651   8.318  68.592  0.00  0.00     0.241 C 
ATOM      5  O4  non d ame      -9.143   7.239  68.657  0.00  0.00    -0.271 OA
ATOM      6  H19 non d ame      -8.990  10.451  69.071  0.00  0.00     0.163 HD
BRANCH   4   7
ATOM      7  C9  non d ame      -7.283   8.487  67.986  0.00  0.00     0.092 C 
ATOM      8  H11 non d ame      -6.892   7.510  67.705  0.00  0.00     0.088 H 
BRANCH   7   9
ATOM      9  N3  non d ame      -7.388   9.281  66.758  0.00  0.00    -0.346 N 
ATOM     10  C7  non d ame      -6.860   8.765  65.519  0.00  0.00     0.240 C 
ATOM     11  O3  non d ame      -6.347   7.713  65.493  0.00  0.00    -0.271 OA
ATOM     12  H10 non d ame      -7.826  10.190  66.766  0.00  0.00     0.163 HD
BRANCH  10  13
ATOM     13  C6  non d ame      -6.971   9.615  64.216  0.00  0.00     0.086 C 
ATOM     14  H6  non d ame      -7.247   9.020  63.345  0.00  0.00     0.086 H 
BRANCH  13  15
ATOM     15  N2  non d ame      -8.019  10.607  64.389  0.00  0.00    -0.343 N 
ATOM     16  C5  non d ame      -9.241  10.513  63.586  0.00  0.00     0.273 C 
ATOM     17  O2  non d ame      -9.369   9.638  62.803  0.00  0.00    -0.266 OA
ATOM     18  H5  non d ame      -7.901  11.354  65.059  0.00  0.00     0.163 HD
BRANCH  16  19
ATOM     19  C4  non d ame     -10.358  11.554  63.760  0.00  0.00     0.154 A 
ATOM     20  C1  non d ame     -10.257  12.833  64.394  0.00  0.00    -0.017 A 
ATOM     21  C2  non d ame     -11.550  13.393  64.291  0.00  0.00     0.077 A 
ATOM     22  H1  non d ame      -9.380  13.286  64.858  0.00  0.00     0.091 H 
ATOM     23  O1  non d ame     -12.298  12.530  63.668  0.00  0.00    -0.218 OA
ATOM     24  N1  non d ame     -11.625  11.448  63.349  0.00  0.00    -0.123 NA
BRANCH  21  25
ATOM     25  C3  non d ame     -11.986  14.756  64.811  0.00  0.00    -0.029 C 
ATOM     26  H2  non d ame     -11.530  14.937  65.786  0.00  0.00     0.036 H 
ATOM     27  H3  non d ame     -11.668  15.530  64.112  0.00  0.00     0.036 H 
ATOM     28  H4  non d ame     -13.071  14.779  64.908  0.00  0.00     0.036 H 
ENDBRANCH  21  25
ENDBRANCH  16  19
ENDBRANCH  13  15
BRANCH  13  29
ATOM     29  C8  non d ame      -5.655  10.297  63.943  0.00  0.00    -0.049 C 
ATOM     30  H7  non d ame      -5.708  10.824  62.990  0.00  0.00     0.030 H 
ATOM     31  H8  non d ame      -5.444  11.011  64.741  0.00  0.00     0.030 H 
ATOM     32  H9  non d ame      -4.861   9.553  63.902  0.00  0.00     0.030 H 
ENDBRANCH  13  29
ENDBRANCH  10  13
ENDBRANCH   7   9
BRANCH   7  33
ATOM     33  C11 non d ame      -6.355   9.221  68.998  0.00  0.00    -0.033 C 
ATOM     34  H12 non d ame      -6.785  10.206  69.184  0.00  0.00     0.042 H 
BRANCH  33  35
ATOM     35  C12 non d ame      -6.296   8.469  70.364  0.00  0.00    -0.071 C 
ATOM     36  H13 non d ame      -5.405   7.842  70.395  0.00  0.00     0.028 H 
ATOM     37  H14 non d ame      -6.257   9.195  71.176  0.00  0.00     0.028 H 
ATOM     38  H15 non d ame      -7.184   7.848  70.474  0.00  0.00     0.028 H 
ENDBRANCH  33  35
BRANCH  33  39
ATOM     39  C13 non d ame      -4.926   9.422  68.399  0.00  0.00    -0.071 C 
ATOM     40  H16 non d ame      -5.007   9.701  67.349  0.00  0.00     0.028 H 
ATOM     41  H17 non d ame      -4.410  10.212  68.946  0.00  0.00     0.028 H 
ATOM     42  H18 non d ame      -4.362   8.493  68.486  0.00  0.00     0.028 H 
ENDBRANCH  33  39
ENDBRANCH   7  33
ENDBRANCH   4   7
ENDBRANCH   1   3
BRANCH   1  43
ATOM     43  C15 non d ame     -11.525  10.678  69.418  0.00  0.00     0.240 C 
ATOM     44  O5  non d ame     -12.227  10.743  68.460  0.00  0.00    -0.271 OA
ATOM     45  N6  non d ame     -11.434  11.838  70.349  0.00  0.00    -0.355 N 
ATOM     46  H46 non d ame     -10.845  11.793  71.168  0.00  0.00     0.162 HD
BRANCH  45  47
ATOM     47  C20 non d ame     -12.211  13.065  70.071  0.00  0.00     0.013 C 
ATOM     48  H30 non d ame     -12.894  12.850  69.250  0.00  0.00     0.072 H 
BRANCH  47  49
ATOM     49  C21 non d ame     -11.265  14.177  69.676  0.00  0.00    -0.038 C 
ATOM     50  H31 non d ame     -11.876  15.079  69.623  0.00  0.00     0.036 H 
ATOM     51  H32 non d ame     -10.435  14.121  70.381  0.00  0.00     0.036 H 
BRANCH  49  52
ATOM     52  C22 non d ame     -10.658  13.978  68.271  0.00  0.00     0.018 C 
ATOM     53  H33 non d ame     -10.343  12.934  68.230  0.00  0.00     0.048 H 
ATOM     54  H34 non d ame     -11.406  14.349  67.570  0.00  0.00     0.048 H 
BRANCH  52  55
ATOM     55  C23 non d ame      -9.376  14.820  68.018  0.00  0.00     0.259 C 
ATOM     56  O7  non d ame      -8.731  14.653  67.035  0.00  0.00    -0.265 OA
BRANCH  55  57
ATOM     57  O8  non d ame      -8.973  15.784  68.983  0.00  0.00    -0.317 OA
BRANCH  57  58
ATOM     58  C29 non d ame      -7.925  16.650  68.539  0.00  0.00     0.052 C 
ATOM     59  H47 non d ame      -7.373  16.930  69.436  0.00  0.00     0.082 H 
ATOM     60  H48 non d ame      -7.421  16.115  67.734  0.00  0.00     0.082 H 
BRANCH  58  61
ATOM     61  C35 non d ame      -8.579  17.927  67.946  0.00  0.00    -0.034 A 
ATOM     62  C30 non d ame      -8.097  18.468  66.758  0.00  0.00    -0.075 A 
ATOM     63  C31 non d ame      -8.684  19.614  66.225  0.00  0.00    -0.082 A 
ATOM     64  H49 non d ame      -7.261  17.994  66.245  0.00  0.00     0.084 H 
ATOM     65  C32 non d ame      -9.755  20.222  66.886  0.00  0.00    -0.083 A 
ATOM     66  H50 non d ame      -8.306  20.035  65.294  0.00  0.00     0.083 H 
ATOM     67  C33 non d ame     -10.230  19.681  68.073  0.00  0.00    -0.082 A 
ATOM     68  H51 non d ame     -10.220  21.119  66.476  0.00  0.00     0.083 H 
ATOM     69  C34 non d ame      -9.648  18.533  68.608  0.00  0.00    -0.075 A 
ATOM     70  H52 non d ame     -11.064  20.158  68.587  0.00  0.00     0.083 H 
ATOM     71  H53 non d ame     -10.028  18.113  69.540  0.00  0.00     0.084 H 
ENDBRANCH  58  61
ENDBRANCH  57  58
ENDBRANCH  55  57
ENDBRANCH  52  55
ENDBRANCH  49  52
ENDBRANCH  47  49
BRANCH  47  72
ATOM     72  C24 non d ame     -12.990  13.477  71.317  0.00  0.00    -0.039 C 
ATOM     73  H35 non d ame     -14.038  13.295  71.078  0.00  0.00     0.036 H 
ATOM     74  H36 non d ame     -12.520  12.943  72.144  0.00  0.00     0.036 H 
BRANCH  72  75
ATOM     75  C25 non d ame     -12.840  15.043  71.620  0.00  0.00    -0.001 C 
ATOM     76  C26 non d ame     -11.958  15.267  72.990  0.00  0.00    -0.035 C 
ATOM     77  C27 non d ame     -12.639  16.094  73.817  0.00  0.00     0.085 C 
ATOM     78  H38 non d ame     -11.900  14.335  73.553  0.00  0.00     0.036 H 
ATOM     79  H39 non d ame     -11.049  15.824  72.762  0.00  0.00     0.036 H 
ATOM     80  N5  non d ame     -14.046  16.196  73.281  0.00  0.00    -0.049 N 
ATOM     81  H40 non d ame     -12.662  15.588  74.783  0.00  0.00     0.075 H 
ATOM     82  H41 non d ame     -12.153  17.065  73.722  0.00  0.00     0.075 H 
ATOM     83  C28 non d ame     -13.994  15.601  71.780  0.00  0.00     0.193 C 
ATOM     84  H42 non d ame     -14.614  15.583  73.849  0.00  0.00     0.280 HD
ATOM     85  H43 non d ame     -14.263  17.180  73.229  0.00  0.00     0.280 HD
ATOM     86  H44 non d ame     -14.013  16.269  70.919  0.00  0.00     0.129 H 
ATOM     87  H37 non d ame     -12.537  15.607  70.738  0.00  0.00     0.046 H 
BRANCH  83  88
ATOM     88  O6  non d ame     -15.069  14.684  71.577  0.00  0.00    -0.369 OA
ATOM     89  H45 non d ame     -14.749  13.786  71.687  0.00  0.00     0.212 HD
ENDBRANCH  83  88
ENDBRANCH  72  75
ENDBRANCH  47  72
ENDBRANCH  45  47
ENDBRANCH   1  43
BRANCH   1  90
ATOM     90  C16 non d ame     -10.578   9.176  71.198  0.00  0.00    -0.035 C 
ATOM     91  H21 non d ame      -9.606   8.702  71.337  0.00  0.00     0.037 H 
ATOM     92  H22 non d ame     -10.776  10.151  71.641  0.00  0.00     0.037 H 
BRANCH  90  93
ATOM     93  C17 non d ame     -11.635   8.195  71.797  0.00  0.00    -0.059 C 
ATOM     94  H23 non d ame     -11.208   7.761  72.701  0.00  0.00     0.038 H 
BRANCH  93  95
ATOM     95  C18 non d ame     -12.957   8.924  72.197  0.00  0.00    -0.073 C 
ATOM     96  H24 non d ame     -13.782   8.211  72.185  0.00  0.00     0.028 H 
ATOM     97  H25 non d ame     -12.853   9.341  73.198  0.00  0.00     0.028 H 
ATOM     98  H26 non d ame     -13.159   9.726  71.488  0.00  0.00     0.028 H 
ENDBRANCH  93  95
BRANCH  93  99
ATOM     99  C19 non d ame     -11.919   7.042  70.831  0.00  0.00    -0.073 C 
ATOM    100  H27 non d ame     -12.976   6.781  70.877  0.00  0.00     0.028 H 
ATOM    101  H28 non d ame     -11.664   7.347  69.816  0.00  0.00     0.028 H 
ATOM    102  H29 non d ame     -11.319   6.176  71.112  0.00  0.00     0.028 H 
ENDBRANCH  93  99
ENDBRANCH  90  93
ENDBRANCH   1  90
TORSDOF 26
ENDMDL
MODEL 8
REMARK VINA RESULT:      -6.2      3.801      9.582
REMARK  26 active torsions:
REMARK  status: ('A' for Active; 'I' for Inactive)
REMARK    1  A    between atoms: C2_2  and  C3_3 
REMARK    2  A    between atoms: C4_6  and  C5_7 
REMARK       I    between atoms: C5_7  and  N2_9 
REMARK    3  A    between atoms: N2_9  and  C6_10 
REMARK    4  A    between atoms: C6_10  and  C7_11 
REMARK    5  A    between atoms: C6_10  and  C8_13 
REMARK       I    between atoms: C7_11  and  N3_14 
REMARK    6  A    between atoms: N3_14  and  C9_15 
REMARK    7  A    between atoms: C9_15  and  C10_16 
REMARK    8  A    between atoms: C9_15  and  C11_18 
REMARK       I    between atoms: C10_16  and  N4_21 
REMARK    9  A    between atoms: C11_18  and  C12_19 
REMARK   10  A    between atoms: C11_18  and  C13_20 
REMARK   11  A    between atoms: N4_21  and  C14_22 
REMARK   12  A    between atoms: C14_22  and  C15_23 
REMARK   13  A    between atoms: C14_22  and  C16_25 
REMARK       I    between atoms: C15_23  and  N6_40 
REMARK   14  A    between atoms: C16_25  and  C17_26 
REMARK   15  A    between atoms: C17_26  and  C18_27 
REMARK   16  A    between atoms: C17_26  and  C19_28 
REMARK   17  A    between atoms: C20_29  and  C21_30 
REMARK   18  A    between atoms: C20_29  and  C24_33 
REMARK   19  A    between atoms: C20_29  and  N6_40 
REMARK   20  A    between atoms: C21_30  and  C22_31 
REMARK   21  A    between atoms: C22_31  and  C23_32 
REMARK   22  A    between atoms: C23_32  and  O8_43 
REMARK   23  A    between atoms: C24_33  and  C25_34 
REMARK   24  A    between atoms: C28_38  and  O6_39 
REMARK   25  A    between atoms: C29_42  and  O8_43 
REMARK   26  A    between atoms: C29_42  and  C35_49 
ROOT
ATOM      1  C14 non d ame      -7.656   8.162  64.099  0.00  0.00     0.089 C 
ATOM      2  H20 non d ame      -7.593   8.482  63.059  0.00  0.00     0.087 H 
ENDROOT
BRANCH   1   3
ATOM      3  N4  non d ame      -8.589   9.051  64.775  0.00  0.00    -0.346 N 
ATOM      4  C10 non d ame      -9.473   9.977  63.978  0.00  0.00     0.241 C 
ATOM      5  O4  non d ame      -9.413   9.991  62.793  0.00  0.00    -0.271 OA
ATOM      6  H19 non d ame      -8.622   9.026  65.785  0.00  0.00     0.163 HD
BRANCH   4   7
ATOM      7  C9  non d ame     -10.436  10.887  64.695  0.00  0.00     0.092 C 
ATOM      8  H11 non d ame     -11.305  10.310  65.011  0.00  0.00     0.088 H 
BRANCH   7   9
ATOM      9  N3  non d ame      -9.802  11.414  65.907  0.00  0.00    -0.346 N 
ATOM     10  C7  non d ame      -9.987  10.742  67.169  0.00  0.00     0.240 C 
ATOM     11  O3  non d ame     -10.645   9.775  67.228  0.00  0.00    -0.271 OA
ATOM     12  H10 non d ame      -9.233  12.248  65.872  0.00  0.00     0.163 HD
BRANCH  10  13
ATOM     13  C6  non d ame      -9.313  11.310  68.455  0.00  0.00     0.086 C 
ATOM     14  H6  non d ame      -8.476  11.973  68.236  0.00  0.00     0.086 H 
BRANCH  13  15
ATOM     15  N2  non d ame     -10.288  12.099  69.189  0.00  0.00    -0.343 N 
ATOM     16  C5  non d ame     -10.507  13.499  68.819  0.00  0.00     0.273 C 
ATOM     17  O2  non d ame      -9.893  13.981  67.932  0.00  0.00    -0.266 OA
ATOM     18  H5  non d ame     -10.807  11.681  69.947  0.00  0.00     0.163 HD
BRANCH  16  19
ATOM     19  C4  non d ame     -11.537  14.346  69.584  0.00  0.00     0.154 A 
ATOM     20  C1  non d ame     -12.414  13.906  70.626  0.00  0.00    -0.017 A 
ATOM     21  C2  non d ame     -13.151  15.055  70.991  0.00  0.00     0.077 A 
ATOM     22  H1  non d ame     -12.504  12.906  71.052  0.00  0.00     0.091 H 
ATOM     23  O1  non d ame     -12.735  16.035  70.242  0.00  0.00    -0.218 OA
ATOM     24  N1  non d ame     -11.794  15.645  69.412  0.00  0.00    -0.123 NA
BRANCH  21  25
ATOM     25  C3  non d ame     -14.228  15.132  72.063  0.00  0.00    -0.029 C 
ATOM     26  H2  non d ame     -14.610  14.132  72.269  0.00  0.00     0.036 H 
ATOM     27  H3  non d ame     -13.803  15.553  72.975  0.00  0.00     0.036 H 
ATOM     28  H4  non d ame     -15.043  15.768  71.716  0.00  0.00     0.036 H 
ENDBRANCH  21  25
ENDBRANCH  16  19
ENDBRANCH  13  15
BRANCH  13  29
ATOM     29  C8  non d ame      -8.820  10.172  69.313  0.00  0.00    -0.049 C 
ATOM     30  H7  non d ame      -9.672   9.608  69.694  0.00  0.00     0.030 H 
ATOM     31  H8  non d ame      -8.188   9.514  68.715  0.00  0.00     0.030 H 
ATOM     32  H9  non d ame      -8.245  10.569  70.148  0.00  0.00     0.030 H 
ENDBRANCH  13  29
ENDBRANCH  10  13
ENDBRANCH   7   9
BRANCH   7  33
ATOM     33  C11 non d ame     -10.827  12.069  63.760  0.00  0.00    -0.033 C 
ATOM     34  H12 non d ame     -10.216  11.991  62.860  0.00  0.00     0.042 H 
BRANCH  33  35
ATOM     35  C12 non d ame     -12.322  11.977  63.322  0.00  0.00    -0.071 C 
ATOM     36  H13 non d ame     -12.964  12.098  64.195  0.00  0.00     0.028 H 
ATOM     37  H14 non d ame     -12.538  12.765  62.601  0.00  0.00     0.028 H 
ATOM     38  H15 non d ame     -12.507  11.006  62.865  0.00  0.00     0.028 H 
ENDBRANCH  33  35
BRANCH  33  39
ATOM     39  C13 non d ame     -10.518  13.442  64.437  0.00  0.00    -0.071 C 
ATOM     40  H16 non d ame      -9.456  13.665  64.339  0.00  0.00     0.028 H 
ATOM     41  H17 non d ame     -11.100  14.226  63.953  0.00  0.00     0.028 H 
ATOM     42  H18 non d ame     -10.782  13.393  65.493  0.00  0.00     0.028 H 
ENDBRANCH  33  39
ENDBRANCH   7  33
ENDBRANCH   4   7
ENDBRANCH   1   3
BRANCH   1  43
ATOM     43  C15 non d ame      -8.177   6.703  64.234  0.00  0.00     0.240 C 
ATOM     44  O5  non d ame      -8.075   5.951  63.317  0.00  0.00    -0.271 OA
ATOM     45  N6  non d ame      -8.795   6.237  65.508  0.00  0.00    -0.355 N 
ATOM     46  H46 non d ame      -8.883   6.865  66.294  0.00  0.00     0.162 HD
BRANCH  45  47
ATOM     47  C20 non d ame      -9.283   4.846  65.620  0.00  0.00     0.013 C 
ATOM     48  H30 non d ame      -9.395   4.448  64.612  0.00  0.00     0.072 H 
BRANCH  47  49
ATOM     49  C21 non d ame     -10.620   4.841  66.328  0.00  0.00    -0.038 C 
ATOM     50  H31 non d ame     -11.370   4.777  65.540  0.00  0.00     0.036 H 
ATOM     51  H32 non d ame     -10.550   4.055  67.081  0.00  0.00     0.036 H 
BRANCH  49  52
ATOM     52  C22 non d ame     -10.898   6.153  67.092  0.00  0.00     0.018 C 
ATOM     53  H33 non d ame     -10.205   6.888  66.681  0.00  0.00     0.048 H 
ATOM     54  H34 non d ame     -11.974   6.317  67.016  0.00  0.00     0.048 H 
BRANCH  52  55
ATOM     55  C23 non d ame     -10.583   6.071  68.612  0.00  0.00     0.259 C 
ATOM     56  O7  non d ame     -10.466   5.017  69.147  0.00  0.00    -0.265 OA
BRANCH  55  57
ATOM     57  O8  non d ame     -10.448   7.272  69.362  0.00  0.00    -0.317 OA
BRANCH  57  58
ATOM     58  C29 non d ame     -10.560   7.092  70.776  0.00  0.00     0.052 C 
ATOM     59  H47 non d ame     -10.591   6.015  70.936  0.00  0.00     0.082 H 
ATOM     60  H48 non d ame      -9.756   7.684  71.214  0.00  0.00     0.082 H 
BRANCH  58  61
ATOM     61  C35 non d ame     -11.916   7.696  71.230  0.00  0.00    -0.034 A 
ATOM     62  C30 non d ame     -12.000   9.041  71.572  0.00  0.00    -0.075 A 
ATOM     63  C31 non d ame     -13.217   9.584  71.979  0.00  0.00    -0.082 A 
ATOM     64  H49 non d ame     -11.112   9.671  71.521  0.00  0.00     0.084 H 
ATOM     65  C32 non d ame     -14.354   8.774  72.046  0.00  0.00    -0.083 A 
ATOM     66  H50 non d ame     -13.280  10.639  72.245  0.00  0.00     0.083 H 
ATOM     67  C33 non d ame     -14.266   7.430  71.707  0.00  0.00    -0.082 A 
ATOM     68  H51 non d ame     -15.311   9.190  72.364  0.00  0.00     0.083 H 
ATOM     69  C34 non d ame     -13.051   6.885  71.297  0.00  0.00    -0.075 A 
ATOM     70  H52 non d ame     -15.154   6.800  71.763  0.00  0.00     0.083 H 
ATOM     71  H53 non d ame     -12.989   5.829  71.031  0.00  0.00     0.084 H 
ENDBRANCH  58  61
ENDBRANCH  57  58
ENDBRANCH  55  57
ENDBRANCH  52  55
ENDBRANCH  49  52
ENDBRANCH  47  49
BRANCH  47  72
ATOM     72  C24 non d ame      -8.282   4.010  66.414  0.00  0.00    -0.039 C 
ATOM     73  H35 non d ame      -8.843   3.611  67.259  0.00  0.00     0.036 H 
ATOM     74  H36 non d ame      -7.832   3.331  65.690  0.00  0.00     0.036 H 
BRANCH  72  75
ATOM     75  C25 non d ame      -7.101   4.912  67.014  0.00  0.00    -0.001 C 
ATOM     76  C26 non d ame      -5.692   4.582  66.233  0.00  0.00    -0.035 C 
ATOM     77  C27 non d ame      -4.735   4.317  67.153  0.00  0.00     0.085 C 
ATOM     78  H38 non d ame      -5.781   3.645  65.682  0.00  0.00     0.036 H 
ATOM     79  H39 non d ame      -5.324   5.477  65.731  0.00  0.00     0.036 H 
ATOM     80  N5  non d ame      -5.436   4.116  68.475  0.00  0.00    -0.049 N 
ATOM     81  H40 non d ame      -4.284   3.374  66.843  0.00  0.00     0.075 H 
ATOM     82  H41 non d ame      -4.127   5.220  67.209  0.00  0.00     0.075 H 
ATOM     83  C28 non d ame      -6.934   4.684  68.274  0.00  0.00     0.193 C 
ATOM     84  H42 non d ame      -5.488   3.118  68.623  0.00  0.00     0.280 HD
ATOM     85  H43 non d ame      -4.958   4.701  69.145  0.00  0.00     0.280 HD
ATOM     86  H44 non d ame      -7.220   5.651  68.690  0.00  0.00     0.129 H 
ATOM     87  H37 non d ame      -7.386   5.960  67.101  0.00  0.00     0.046 H 
BRANCH  83  88
ATOM     88  O6  non d ame      -7.887   3.751  68.785  0.00  0.00    -0.369 OA
ATOM     89  H45 non d ame      -7.435   2.949  69.057  0.00  0.00     0.212 HD
ENDBRANCH  83  88
ENDBRANCH  72  75
ENDBRANCH  47  72
ENDBRANCH  45  47
ENDBRANCH   1  43
BRANCH   1  90
ATOM     90  C16 non d ame      -6.290   8.281  64.757  0.00  0.00    -0.035 C 
ATOM     91  H21 non d ame      -6.455   8.873  65.658  0.00  0.00     0.037 H 
ATOM     92  H22 non d ame      -5.919   7.260  64.837  0.00  0.00     0.037 H 
BRANCH  90  93
ATOM     93  C17 non d ame      -5.247   9.064  63.900  0.00  0.00    -0.059 C 
ATOM     94  H23 non d ame      -4.275   8.595  64.051  0.00  0.00     0.038 H 
BRANCH  93  95
ATOM     95  C18 non d ame      -5.574   9.005  62.374  0.00  0.00    -0.073 C 
ATOM     96  H24 non d ame      -4.647   9.057  61.802  0.00  0.00     0.028 H 
ATOM     97  H25 non d ame      -6.087   8.070  62.148  0.00  0.00     0.028 H 
ATOM     98  H26 non d ame      -6.214   9.845  62.105  0.00  0.00     0.028 H 
ENDBRANCH  93  95
BRANCH  93  99
ATOM     99  C19 non d ame      -5.128  10.515  64.375  0.00  0.00    -0.073 C 
ATOM    100  H27 non d ame      -5.776  11.149  63.771  0.00  0.00     0.028 H 
ATOM    101  H28 non d ame      -5.428  10.580  65.421  0.00  0.00     0.028 H 
ATOM    102  H29 non d ame      -4.096  10.848  64.272  0.00  0.00     0.028 H 
ENDBRANCH  93  99
ENDBRANCH  90  93
ENDBRANCH   1  90
TORSDOF 26
ENDMDL
MODEL 9
REMARK VINA RESULT:      -6.0      2.559      7.696
REMARK  26 active torsions:
REMARK  status: ('A' for Active; 'I' for Inactive)
REMARK    1  A    between atoms: C2_2  and  C3_3 
REMARK    2  A    between atoms: C4_6  and  C5_7 
REMARK       I    between atoms: C5_7  and  N2_9 
REMARK    3  A    between atoms: N2_9  and  C6_10 
REMARK    4  A    between atoms: C6_10  and  C7_11 
REMARK    5  A    between atoms: C6_10  and  C8_13 
REMARK       I    between atoms: C7_11  and  N3_14 
REMARK    6  A    between atoms: N3_14  and  C9_15 
REMARK    7  A    between atoms: C9_15  and  C10_16 
REMARK    8  A    between atoms: C9_15  and  C11_18 
REMARK       I    between atoms: C10_16  and  N4_21 
REMARK    9  A    between atoms: C11_18  and  C12_19 
REMARK   10  A    between atoms: C11_18  and  C13_20 
REMARK   11  A    between atoms: N4_21  and  C14_22 
REMARK   12  A    between atoms: C14_22  and  C15_23 
REMARK   13  A    between atoms: C14_22  and  C16_25 
REMARK       I    between atoms: C15_23  and  N6_40 
REMARK   14  A    between atoms: C16_25  and  C17_26 
REMARK   15  A    between atoms: C17_26  and  C18_27 
REMARK   16  A    between atoms: C17_26  and  C19_28 
REMARK   17  A    between atoms: C20_29  and  C21_30 
REMARK   18  A    between atoms: C20_29  and  C24_33 
REMARK   19  A    between atoms: C20_29  and  N6_40 
REMARK   20  A    between atoms: C21_30  and  C22_31 
REMARK   21  A    between atoms: C22_31  and  C23_32 
REMARK   22  A    between atoms: C23_32  and  O8_43 
REMARK   23  A    between atoms: C24_33  and  C25_34 
REMARK   24  A    between atoms: C28_38  and  O6_39 
REMARK   25  A    between atoms: C29_42  and  O8_43 
REMARK   26  A    between atoms: C29_42  and  C35_49 
ROOT
ATOM      1  C14 non d ame      -9.931  11.998  65.659  0.00  0.00     0.089 C 
ATOM      2  H20 non d ame      -9.813  12.483  64.691  0.00  0.00     0.087 H 
ENDROOT
BRANCH   1   3
ATOM      3  N4  non d ame      -9.176  10.755  65.623  0.00  0.00    -0.346 N 
ATOM      4  C10 non d ame      -9.072   9.964  64.343  0.00  0.00     0.241 C 
ATOM      5  O4  non d ame      -9.607  10.348  63.355  0.00  0.00    -0.271 OA
ATOM      6  H19 non d ame      -8.731  10.444  66.475  0.00  0.00     0.163 HD
BRANCH   4   7
ATOM      7  C9  non d ame      -8.283   8.682  64.322  0.00  0.00     0.092 C 
ATOM      8  H11 non d ame      -7.308   8.853  64.780  0.00  0.00     0.088 H 
BRANCH   7   9
ATOM      9  N3  non d ame      -8.969   7.671  65.131  0.00  0.00    -0.346 N 
ATOM     10  C7  non d ame      -8.454   7.314  66.429  0.00  0.00     0.240 C 
ATOM     11  O3  non d ame      -7.485   7.829  66.838  0.00  0.00    -0.271 OA
ATOM     12  H10 non d ame      -9.805   7.217  64.791  0.00  0.00     0.163 HD
BRANCH  10  13
ATOM     13  C6  non d ame      -9.188   6.235  67.284  0.00  0.00     0.086 C 
ATOM     14  H6  non d ame      -8.505   5.642  67.893  0.00  0.00     0.086 H 
BRANCH  13  15
ATOM     15  N2  non d ame     -10.094   6.900  68.205  0.00  0.00    -0.343 N 
ATOM     16  C5  non d ame      -9.705   7.064  69.608  0.00  0.00     0.273 C 
ATOM     17  O2  non d ame      -8.662   6.655  69.985  0.00  0.00    -0.266 OA
ATOM     18  H5  non d ame     -10.984   7.244  67.875  0.00  0.00     0.163 HD
BRANCH  16  19
ATOM     19  C4  non d ame     -10.652   7.767  70.592  0.00  0.00     0.154 A 
ATOM     20  C1  non d ame     -11.406   8.962  70.363  0.00  0.00    -0.017 A 
ATOM     21  C2  non d ame     -12.108   9.186  71.568  0.00  0.00     0.077 A 
ATOM     22  H1  non d ame     -11.437   9.574  69.461  0.00  0.00     0.091 H 
ATOM     23  O1  non d ame     -11.791   8.225  72.386  0.00  0.00    -0.218 OA
ATOM     24  N1  non d ame     -10.942   7.385  71.839  0.00  0.00    -0.123 NA
BRANCH  21  25
ATOM     25  C3  non d ame     -13.063  10.337  71.854  0.00  0.00    -0.029 C 
ATOM     26  H2  non d ame     -13.519  10.673  70.922  0.00  0.00     0.036 H 
ATOM     27  H3  non d ame     -13.842  10.001  72.538  0.00  0.00     0.036 H 
ATOM     28  H4  non d ame     -12.513  11.162  72.308  0.00  0.00     0.036 H 
ENDBRANCH  21  25
ENDBRANCH  16  19
ENDBRANCH  13  15
BRANCH  13  29
ATOM     29  C8  non d ame      -9.960   5.310  66.378  0.00  0.00    -0.049 C 
ATOM     30  H7  non d ame     -11.015   5.330  66.651  0.00  0.00     0.030 H 
ATOM     31  H8  non d ame      -9.847   5.639  65.343  0.00  0.00     0.030 H 
ATOM     32  H9  non d ame      -9.577   4.296  66.481  0.00  0.00     0.030 H 
ENDBRANCH  13  29
ENDBRANCH  10  13
ENDBRANCH   7   9
BRANCH   7  33
ATOM     33  C11 non d ame      -8.158   8.173  62.856  0.00  0.00    -0.033 C 
ATOM     34  H12 non d ame      -9.076   8.445  62.335  0.00  0.00     0.042 H 
BRANCH  33  35
ATOM     35  C12 non d ame      -6.974   8.866  62.112  0.00  0.00    -0.071 C 
ATOM     36  H13 non d ame      -7.085   8.719  61.038  0.00  0.00     0.028 H 
ATOM     37  H14 non d ame      -6.979   9.932  62.335  0.00  0.00     0.028 H 
ATOM     38  H15 non d ame      -6.032   8.429  62.445  0.00  0.00     0.028 H 
ENDBRANCH  33  35
BRANCH  33  39
ATOM     39  C13 non d ame      -8.021   6.617  62.814  0.00  0.00    -0.071 C 
ATOM     40  H16 non d ame      -7.193   6.343  62.162  0.00  0.00     0.028 H 
ATOM     41  H17 non d ame      -7.833   6.241  63.820  0.00  0.00     0.028 H 
ATOM     42  H18 non d ame      -8.944   6.183  62.431  0.00  0.00     0.028 H 
ENDBRANCH  33  39
ENDBRANCH   7  33
ENDBRANCH   4   7
ENDBRANCH   1   3
BRANCH   1  43
ATOM     43  C15 non d ame      -9.388  12.873  66.825  0.00  0.00     0.240 C 
ATOM     44  O5  non d ame      -9.734  12.652  67.942  0.00  0.00    -0.271 OA
ATOM     45  N6  non d ame      -8.430  13.982  66.552  0.00  0.00    -0.355 N 
ATOM     46  H46 non d ame      -8.126  14.177  65.609  0.00  0.00     0.162 HD
BRANCH  45  47
ATOM     47  C20 non d ame      -7.922  14.804  67.672  0.00  0.00     0.013 C 
ATOM     48  H30 non d ame      -8.251  14.342  68.603  0.00  0.00     0.072 H 
BRANCH  47  49
ATOM     49  C21 non d ame      -8.487  16.203  67.562  0.00  0.00    -0.038 C 
ATOM     50  H31 non d ame      -7.627  16.872  67.611  0.00  0.00     0.036 H 
ATOM     51  H32 non d ame      -9.122  16.194  66.676  0.00  0.00     0.036 H 
BRANCH  49  52
ATOM     52  C22 non d ame      -9.400  16.575  68.750  0.00  0.00     0.018 C 
ATOM     53  H33 non d ame      -9.597  15.640  69.276  0.00  0.00     0.048 H 
ATOM     54  H34 non d ame      -8.896  17.394  69.264  0.00  0.00     0.048 H 
BRANCH  52  55
ATOM     55  C23 non d ame     -10.789  17.125  68.322  0.00  0.00     0.259 C 
ATOM     56  O7  non d ame     -10.868  18.058  67.591  0.00  0.00    -0.265 OA
BRANCH  55  57
ATOM     57  O8  non d ame     -11.968  16.510  68.826  0.00  0.00    -0.317 OA
BRANCH  57  58
ATOM     58  C29 non d ame     -11.774  15.172  69.294  0.00  0.00     0.052 C 
ATOM     59  H47 non d ame     -12.462  14.555  68.717  0.00  0.00     0.082 H 
ATOM     60  H48 non d ame     -10.700  14.992  69.234  0.00  0.00     0.082 H 
BRANCH  58  61
ATOM     61  C35 non d ame     -12.198  15.120  70.785  0.00  0.00    -0.034 A 
ATOM     62  C30 non d ame     -11.825  16.142  71.652  0.00  0.00    -0.075 A 
ATOM     63  C31 non d ame     -12.206  16.095  72.992  0.00  0.00    -0.082 A 
ATOM     64  H49 non d ame     -11.234  16.979  71.282  0.00  0.00     0.084 H 
ATOM     65  C32 non d ame     -12.962  15.019  73.465  0.00  0.00    -0.083 A 
ATOM     66  H50 non d ame     -11.913  16.898  73.668  0.00  0.00     0.083 H 
ATOM     67  C33 non d ame     -13.329  13.999  72.598  0.00  0.00    -0.082 A 
ATOM     68  H51 non d ame     -13.264  14.974  74.512  0.00  0.00     0.083 H 
ATOM     69  C34 non d ame     -12.952  14.044  71.257  0.00  0.00    -0.075 A 
ATOM     70  H52 non d ame     -13.917  13.160  72.971  0.00  0.00     0.083 H 
ATOM     71  H53 non d ame     -13.246  13.239  70.581  0.00  0.00     0.084 H 
ENDBRANCH  58  61
ENDBRANCH  57  58
ENDBRANCH  55  57
ENDBRANCH  52  55
ENDBRANCH  49  52
ENDBRANCH  47  49
BRANCH  47  72
ATOM     72  C24 non d ame      -6.397  14.864  67.618  0.00  0.00    -0.039 C 
ATOM     73  H35 non d ame      -6.149  15.006  66.566  0.00  0.00     0.036 H 
ATOM     74  H36 non d ame      -6.110  15.617  68.352  0.00  0.00     0.036 H 
BRANCH  72  75
ATOM     75  C25 non d ame      -5.734  13.480  68.077  0.00  0.00    -0.001 C 
ATOM     76  C26 non d ame      -6.045  13.209  69.669  0.00  0.00    -0.035 C 
ATOM     77  C27 non d ame      -4.879  12.935  70.301  0.00  0.00     0.085 C 
ATOM     78  H38 non d ame      -6.382  14.130  70.145  0.00  0.00     0.036 H 
ATOM     79  H39 non d ame      -6.622  12.292  69.787  0.00  0.00     0.036 H 
ATOM     80  N5  non d ame      -3.764  13.312  69.356  0.00  0.00    -0.049 N 
ATOM     81  H40 non d ame      -4.853  13.598  71.166  0.00  0.00     0.075 H 
ATOM     82  H41 non d ame      -4.873  11.854  70.443  0.00  0.00     0.075 H 
ATOM     83  C28 non d ame      -4.453  13.497  67.907  0.00  0.00     0.193 C 
ATOM     84  H42 non d ame      -3.419  14.210  69.665  0.00  0.00     0.280 HD
ATOM     85  H43 non d ame      -3.141  12.519  69.317  0.00  0.00     0.280 HD
ATOM     86  H44 non d ame      -4.344  12.729  67.141  0.00  0.00     0.129 H 
ATOM     87  H37 non d ame      -5.952  12.667  67.384  0.00  0.00     0.046 H 
BRANCH  83  88
ATOM     88  O6  non d ame      -4.005  14.710  67.300  0.00  0.00    -0.369 OA
ATOM     89  H45 non d ame      -4.196  14.686  66.360  0.00  0.00     0.212 HD
ENDBRANCH  83  88
ENDBRANCH  72  75
ENDBRANCH  47  72
ENDBRANCH  45  47
ENDBRANCH   1  43
BRANCH   1  90
ATOM     90  C16 non d ame     -11.399  11.681  65.900  0.00  0.00    -0.035 C 
ATOM     91  H21 non d ame     -11.545  10.675  65.506  0.00  0.00     0.037 H 
ATOM     92  H22 non d ame     -11.568  11.882  66.957  0.00  0.00     0.037 H 
BRANCH  90  93
ATOM     93  C17 non d ame     -12.377  12.609  65.111  0.00  0.00    -0.059 C 
ATOM     94  H23 non d ame     -13.365  12.148  65.140  0.00  0.00     0.038 H 
BRANCH  93  95
ATOM     95  C18 non d ame     -12.494  14.027  65.755  0.00  0.00    -0.073 C 
ATOM     96  H24 non d ame     -12.313  13.955  66.828  0.00  0.00     0.028 H 
ATOM     97  H25 non d ame     -11.755  14.691  65.306  0.00  0.00     0.028 H 
ATOM     98  H26 non d ame     -13.493  14.425  65.580  0.00  0.00     0.028 H 
ENDBRANCH  93  95
BRANCH  93  99
ATOM     99  C19 non d ame     -11.967  12.710  63.639  0.00  0.00    -0.073 C 
ATOM    100  H27 non d ame     -10.890  12.869  63.573  0.00  0.00     0.028 H 
ATOM    101  H28 non d ame     -12.231  11.787  63.124  0.00  0.00     0.028 H 
ATOM    102  H29 non d ame     -12.486  13.547  63.174  0.00  0.00     0.028 H 
ENDBRANCH  93  99
ENDBRANCH  90  93
ENDBRANCH   1  90
TORSDOF 26
ENDMDL
MODEL 10
REMARK VINA RESULT:      -5.9      3.501      9.138
REMARK  26 active torsions:
REMARK  status: ('A' for Active; 'I' for Inactive)
REMARK    1  A    between atoms: C2_2  and  C3_3 
REMARK    2  A    between atoms: C4_6  and  C5_7 
REMARK       I    between atoms: C5_7  and  N2_9 
REMARK    3  A    between atoms: N2_9  and  C6_10 
REMARK    4  A    between atoms: C6_10  and  C7_11 
REMARK    5  A    between atoms: C6_10  and  C8_13 
REMARK       I    between atoms: C7_11  and  N3_14 
REMARK    6  A    between atoms: N3_14  and  C9_15 
REMARK    7  A    between atoms: C9_15  and  C10_16 
REMARK    8  A    between atoms: C9_15  and  C11_18 
REMARK       I    between atoms: C10_16  and  N4_21 
REMARK    9  A    between atoms: C11_18  and  C12_19 
REMARK   10  A    between atoms: C11_18  and  C13_20 
REMARK   11  A    between atoms: N4_21  and  C14_22 
REMARK   12  A    between atoms: C14_22  and  C15_23 
REMARK   13  A    between atoms: C14_22  and  C16_25 
REMARK       I    between atoms: C15_23  and  N6_40 
REMARK   14  A    between atoms: C16_25  and  C17_26 
REMARK   15  A    between atoms: C17_26  and  C18_27 
REMARK   16  A    between atoms: C17_26  and  C19_28 
REMARK   17  A    between atoms: C20_29  and  C21_30 
REMARK   18  A    between atoms: C20_29  and  C24_33 
REMARK   19  A    between atoms: C20_29  and  N6_40 
REMARK   20  A    between atoms: C21_30  and  C22_31 
REMARK   21  A    between atoms: C22_31  and  C23_32 
REMARK   22  A    between atoms: C23_32  and  O8_43 
REMARK   23  A    between atoms: C24_33  and  C25_34 
REMARK   24  A    between atoms: C28_38  and  O6_39 
REMARK   25  A    between atoms: C29_42  and  O8_43 
REMARK   26  A    between atoms: C29_42  and  C35_49 
ROOT
ATOM      1  C14 non d ame      -9.434   5.918  68.027  0.00  0.00     0.089 C 
ATOM      2  H20 non d ame     -10.319   5.681  67.438  0.00  0.00     0.087 H 
ENDROOT
BRANCH   1   3
ATOM      3  N4  non d ame      -8.833   7.114  67.457  0.00  0.00    -0.346 N 
ATOM      4  C10 non d ame      -9.704   8.208  66.892  0.00  0.00     0.241 C 
ATOM      5  O4  non d ame     -10.886   8.101  66.906  0.00  0.00    -0.271 OA
ATOM      6  H19 non d ame      -7.825   7.184  67.453  0.00  0.00     0.163 HD
BRANCH   4   7
ATOM      7  C9  non d ame      -9.067   9.442  66.311  0.00  0.00     0.092 C 
ATOM      8  H11 non d ame      -8.711   9.222  65.304  0.00  0.00     0.088 H 
BRANCH   7   9
ATOM      9  N3  non d ame     -10.072  10.502  66.191  0.00  0.00    -0.346 N 
ATOM     10  C7  non d ame     -10.451  10.995  64.890  0.00  0.00     0.240 C 
ATOM     11  O3  non d ame      -9.954  10.550  63.927  0.00  0.00    -0.271 OA
ATOM     12  H10 non d ame     -10.507  10.897  67.013  0.00  0.00     0.163 HD
BRANCH  10  13
ATOM     13  C6  non d ame     -11.519  12.125  64.770  0.00  0.00     0.086 C 
ATOM     14  H6  non d ame     -12.308  12.041  65.517  0.00  0.00     0.086 H 
BRANCH  13  15
ATOM     15  N2  non d ame     -10.873  13.408  64.991  0.00  0.00    -0.343 N 
ATOM     16  C5  non d ame     -11.402  14.315  66.012  0.00  0.00     0.273 C 
ATOM     17  O2  non d ame     -12.349  14.004  66.648  0.00  0.00    -0.266 OA
ATOM     18  H5  non d ame     -10.066  13.667  64.442  0.00  0.00     0.163 HD
BRANCH  16  19
ATOM     19  C4  non d ame     -10.729  15.675  66.258  0.00  0.00     0.154 A 
ATOM     20  C1  non d ame     -10.635  16.381  67.499  0.00  0.00    -0.017 A 
ATOM     21  C2  non d ame      -9.928  17.565  67.192  0.00  0.00     0.077 A 
ATOM     22  H1  non d ame     -11.022  16.081  68.474  0.00  0.00     0.091 H 
ATOM     23  O1  non d ame      -9.650  17.531  65.921  0.00  0.00    -0.218 OA
ATOM     24  N1  non d ame     -10.108  16.438  65.355  0.00  0.00    -0.123 NA
BRANCH  21  25
ATOM     25  C3  non d ame      -9.558  18.673  68.168  0.00  0.00    -0.029 C 
ATOM     26  H2  non d ame     -10.287  18.703  68.979  0.00  0.00     0.036 H 
ATOM     27  H3  non d ame      -8.567  18.478  68.579  0.00  0.00     0.036 H 
ATOM     28  H4  non d ame      -9.553  19.631  67.648  0.00  0.00     0.036 H 
ENDBRANCH  21  25
ENDBRANCH  16  19
ENDBRANCH  13  15
BRANCH  13  29
ATOM     29  C8  non d ame     -12.140  12.090  63.397  0.00  0.00    -0.049 C 
ATOM     30  H7  non d ame     -12.212  13.104  63.004  0.00  0.00     0.030 H 
ATOM     31  H8  non d ame     -11.520  11.486  62.733  0.00  0.00     0.030 H 
ATOM     32  H9  non d ame     -13.136  11.655  63.460  0.00  0.00     0.030 H 
ENDBRANCH  13  29
ENDBRANCH  10  13
ENDBRANCH   7   9
BRANCH   7  33
ATOM     33  C11 non d ame      -7.918   9.923  67.246  0.00  0.00    -0.033 C 
ATOM     34  H12 non d ame      -7.635   9.081  67.877  0.00  0.00     0.042 H 
BRANCH  33  35
ATOM     35  C12 non d ame      -6.657  10.341  66.428  0.00  0.00    -0.071 C 
ATOM     36  H13 non d ame      -6.414   9.558  65.709  0.00  0.00     0.028 H 
ATOM     37  H14 non d ame      -6.860  11.270  65.896  0.00  0.00     0.028 H 
ATOM     38  H15 non d ame      -5.817  10.487  67.106  0.00  0.00     0.028 H 
ENDBRANCH  33  35
BRANCH  33  39
ATOM     39  C13 non d ame      -8.401  11.083  68.174  0.00  0.00    -0.071 C 
ATOM     40  H16 non d ame      -8.134  10.858  69.206  0.00  0.00     0.028 H 
ATOM     41  H17 non d ame      -7.926  12.015  67.869  0.00  0.00     0.028 H 
ATOM     42  H18 non d ame      -9.484  11.184  68.094  0.00  0.00     0.028 H 
ENDBRANCH  33  39
ENDBRANCH   7  33
ENDBRANCH   4   7
ENDBRANCH   1   3
BRANCH   1  43
ATOM     43  C15 non d ame      -9.777   6.198  69.518  0.00  0.00     0.240 C 
ATOM     44  O5  non d ame     -10.669   5.610  70.041  0.00  0.00    -0.271 OA
ATOM     45  N6  non d ame      -8.990   7.195  70.299  0.00  0.00    -0.355 N 
ATOM     46  H46 non d ame      -8.227   7.698  69.868  0.00  0.00     0.162 HD
BRANCH  45  47
ATOM     47  C20 non d ame      -9.328   7.449  71.716  0.00  0.00     0.013 C 
ATOM     48  H30 non d ame     -10.074   6.715  72.019  0.00  0.00     0.072 H 
BRANCH  47  49
ATOM     49  C21 non d ame      -9.893   8.845  71.852  0.00  0.00    -0.038 C 
ATOM     50  H31 non d ame     -10.516   8.825  72.746  0.00  0.00     0.036 H 
ATOM     51  H32 non d ame      -9.034   9.516  71.800  0.00  0.00     0.036 H 
BRANCH  49  52
ATOM     52  C22 non d ame     -10.821   9.234  70.681  0.00  0.00     0.018 C 
ATOM     53  H33 non d ame     -10.460  10.200  70.326  0.00  0.00     0.048 H 
ATOM     54  H34 non d ame     -10.826   8.374  70.010  0.00  0.00     0.048 H 
BRANCH  52  55
ATOM     55  C23 non d ame     -12.300   9.458  71.102  0.00  0.00     0.259 C 
ATOM     56  O7  non d ame     -12.900   8.604  71.669  0.00  0.00    -0.265 OA
BRANCH  55  57
ATOM     57  O8  non d ame     -12.934  10.692  70.791  0.00  0.00    -0.317 OA
BRANCH  57  58
ATOM     58  C29 non d ame     -12.047  11.692  70.282  0.00  0.00     0.052 C 
ATOM     59  H47 non d ame     -11.068  11.459  70.701  0.00  0.00     0.082 H 
ATOM     60  H48 non d ame     -12.191  11.693  69.202  0.00  0.00     0.082 H 
BRANCH  58  61
ATOM     61  C35 non d ame     -12.505  13.066  70.839  0.00  0.00    -0.034 A 
ATOM     62  C30 non d ame     -13.335  13.125  71.953  0.00  0.00    -0.075 A 
ATOM     63  C31 non d ame     -13.747  14.359  72.454  0.00  0.00    -0.082 A 
ATOM     64  H49 non d ame     -13.663  12.204  72.434  0.00  0.00     0.084 H 
ATOM     65  C32 non d ame     -13.326  15.538  71.833  0.00  0.00    -0.083 A 
ATOM     66  H50 non d ame     -14.396  14.401  73.328  0.00  0.00     0.083 H 
ATOM     67  C33 non d ame     -12.500  15.476  70.719  0.00  0.00    -0.082 A 
ATOM     68  H51 non d ame     -13.644  16.508  72.218  0.00  0.00     0.083 H 
ATOM     69  C34 non d ame     -12.084  14.244  70.218  0.00  0.00    -0.075 A 
ATOM     70  H52 non d ame     -12.176  16.398  70.236  0.00  0.00     0.083 H 
ATOM     71  H53 non d ame     -11.434  14.203  69.343  0.00  0.00     0.084 H 
ENDBRANCH  58  61
ENDBRANCH  57  58
ENDBRANCH  55  57
ENDBRANCH  52  55
ENDBRANCH  49  52
ENDBRANCH  47  49
BRANCH  47  72
ATOM     72  C24 non d ame      -8.074   7.320  72.577  0.00  0.00    -0.039 C 
ATOM     73  H35 non d ame      -7.291   6.976  71.901  0.00  0.00     0.036 H 
ATOM     74  H36 non d ame      -7.972   8.278  73.087  0.00  0.00     0.036 H 
BRANCH  72  75
ATOM     75  C25 non d ame      -8.246   6.199  73.709  0.00  0.00    -0.001 C 
ATOM     76  C26 non d ame      -9.604   5.316  73.423  0.00  0.00    -0.035 C 
ATOM     77  C27 non d ame     -10.349   5.283  74.553  0.00  0.00     0.085 C 
ATOM     78  H38 non d ame     -10.244   5.837  72.711  0.00  0.00     0.036 H 
ATOM     79  H39 non d ame      -9.343   4.271  73.258  0.00  0.00     0.036 H 
ATOM     80  N5  non d ame      -9.787   6.330  75.484  0.00  0.00    -0.049 N 
ATOM     81  H40 non d ame     -11.354   5.580  74.249  0.00  0.00     0.075 H 
ATOM     82  H41 non d ame     -10.179   4.297  74.985  0.00  0.00     0.075 H 
ATOM     83  C28 non d ame      -8.343   6.730  74.882  0.00  0.00     0.193 C 
ATOM     84  H42 non d ame     -10.398   7.132  75.415  0.00  0.00     0.280 HD
ATOM     85  H43 non d ame      -9.649   5.876  76.375  0.00  0.00     0.280 HD
ATOM     86  H44 non d ame      -7.429   6.359  75.345  0.00  0.00     0.129 H 
ATOM     87  H37 non d ame      -7.324   5.646  73.886  0.00  0.00     0.046 H 
BRANCH  83  88
ATOM     88  O6  non d ame      -8.203   8.151  74.844  0.00  0.00    -0.369 OA
ATOM     89  H45 non d ame      -7.605   8.395  74.134  0.00  0.00     0.212 HD
ENDBRANCH  83  88
ENDBRANCH  72  75
ENDBRANCH  47  72
ENDBRANCH  45  47
ENDBRANCH   1  43
BRANCH   1  90
ATOM     90  C16 non d ame      -8.437   4.772  67.940  0.00  0.00    -0.035 C 
ATOM     91  H21 non d ame      -7.495   5.231  67.639  0.00  0.00     0.037 H 
ATOM     92  H22 non d ame      -8.509   4.254  68.895  0.00  0.00     0.037 H 
BRANCH  90  93
ATOM     93  C17 non d ame      -8.786   3.721  66.839  0.00  0.00    -0.059 C 
ATOM     94  H23 non d ame      -7.924   3.635  66.179  0.00  0.00     0.038 H 
BRANCH  93  95
ATOM     95  C18 non d ame      -9.069   2.308  67.440  0.00  0.00    -0.073 C 
ATOM     96  H24 non d ame      -9.781   1.779  66.806  0.00  0.00     0.028 H 
ATOM     97  H25 non d ame      -8.139   1.742  67.492  0.00  0.00     0.028 H 
ATOM     98  H26 non d ame      -9.485   2.415  68.442  0.00  0.00     0.028 H 
ENDBRANCH  93  95
BRANCH  93  99
ATOM     99  C19 non d ame      -9.965   4.196  65.985  0.00  0.00    -0.073 C 
ATOM    100  H27 non d ame      -9.588   4.706  65.099  0.00  0.00     0.028 H 
ATOM    101  H28 non d ame     -10.565   3.337  65.683  0.00  0.00     0.028 H 
ATOM    102  H29 non d ame     -10.580   4.883  66.565  0.00  0.00     0.028 H 
ENDBRANCH  93  99
ENDBRANCH  90  93
ENDBRANCH   1  90
TORSDOF 26
ENDMDL
MODEL 11
REMARK VINA RESULT:      -5.9      3.333      9.217
REMARK  26 active torsions:
REMARK  status: ('A' for Active; 'I' for Inactive)
REMARK    1  A    between atoms: C2_2  and  C3_3 
REMARK    2  A    between atoms: C4_6  and  C5_7 
REMARK       I    between atoms: C5_7  and  N2_9 
REMARK    3  A    between atoms: N2_9  and  C6_10 
REMARK    4  A    between atoms: C6_10  and  C7_11 
REMARK    5  A    between atoms: C6_10  and  C8_13 
REMARK       I    between atoms: C7_11  and  N3_14 
REMARK    6  A    between atoms: N3_14  and  C9_15 
REMARK    7  A    between atoms: C9_15  and  C10_16 
REMARK    8  A    between atoms: C9_15  and  C11_18 
REMARK       I    between atoms: C10_16  and  N4_21 
REMARK    9  A    between atoms: C11_18  and  C12_19 
REMARK   10  A    between atoms: C11_18  and  C13_20 
REMARK   11  A    between atoms: N4_21  and  C14_22 
REMARK   12  A    between atoms: C14_22  and  C15_23 
REMARK   13  A    between atoms: C14_22  and  C16_25 
REMARK       I    between atoms: C15_23  and  N6_40 
REMARK   14  A    between atoms: C16_25  and  C17_26 
REMARK   15  A    between atoms: C17_26  and  C18_27 
REMARK   16  A    between atoms: C17_26  and  C19_28 
REMARK   17  A    between atoms: C20_29  and  C21_30 
REMARK   18  A    between atoms: C20_29  and  C24_33 
REMARK   19  A    between atoms: C20_29  and  N6_40 
REMARK   20  A    between atoms: C21_30  and  C22_31 
REMARK   21  A    between atoms: C22_31  and  C23_32 
REMARK   22  A    between atoms: C23_32  and  O8_43 
REMARK   23  A    between atoms: C24_33  and  C25_34 
REMARK   24  A    between atoms: C28_38  and  O6_39 
REMARK   25  A    between atoms: C29_42  and  O8_43 
REMARK   26  A    between atoms: C29_42  and  C35_49 
ROOT
ATOM      1  C14 non d ame      -9.074   6.906  66.578  0.00  0.00     0.089 C 
ATOM      2  H20 non d ame      -9.253   6.423  65.617  0.00  0.00     0.087 H 
ENDROOT
BRANCH   1   3
ATOM      3  N4  non d ame      -8.874   8.325  66.325  0.00  0.00    -0.346 N 
ATOM      4  C10 non d ame      -8.361   8.796  64.987  0.00  0.00     0.241 C 
ATOM      5  O4  non d ame      -8.115   8.012  64.130  0.00  0.00    -0.271 OA
ATOM      6  H19 non d ame      -9.087   8.975  67.069  0.00  0.00     0.163 HD
BRANCH   4   7
ATOM      7  C9  non d ame      -8.164  10.268  64.741  0.00  0.00     0.092 C 
ATOM      8  H11 non d ame      -7.958  10.431  63.683  0.00  0.00     0.088 H 
BRANCH   7   9
ATOM      9  N3  non d ame      -9.403  10.986  65.055  0.00  0.00    -0.346 N 
ATOM     10  C7  non d ame     -10.317  11.344  63.999  0.00  0.00     0.240 C 
ATOM     11  O3  non d ame     -10.070  11.064  62.889  0.00  0.00    -0.271 OA
ATOM     12  H10 non d ame      -9.628  11.237  66.007  0.00  0.00     0.163 HD
BRANCH  10  13
ATOM     13  C6  non d ame     -11.632  12.112  64.339  0.00  0.00     0.086 C 
ATOM     14  H6  non d ame     -12.085  11.779  65.273  0.00  0.00     0.086 H 
BRANCH  13  15
ATOM     15  N2  non d ame     -11.324  13.522  64.506  0.00  0.00    -0.343 N 
ATOM     16  C5  non d ame     -11.034  14.043  65.844  0.00  0.00     0.273 C 
ATOM     17  O2  non d ame     -11.053  13.320  66.779  0.00  0.00    -0.266 OA
ATOM     18  H5  non d ame     -11.312  14.134  63.703  0.00  0.00     0.163 HD
BRANCH  16  19
ATOM     19  C4  non d ame     -10.705  15.532  66.036  0.00  0.00     0.154 A 
ATOM     20  C1  non d ame     -10.482  16.216  67.273  0.00  0.00    -0.017 A 
ATOM     21  C2  non d ame     -10.220  17.555  66.907  0.00  0.00     0.077 A 
ATOM     22  H1  non d ame     -10.507  15.804  68.283  0.00  0.00     0.091 H 
ATOM     23  O1  non d ame     -10.285  17.621  65.609  0.00  0.00    -0.218 OA
ATOM     24  N1  non d ame     -10.567  16.453  65.078  0.00  0.00    -0.123 NA
BRANCH  21  25
ATOM     25  C3  non d ame      -9.914  18.706  67.856  0.00  0.00    -0.029 C 
ATOM     26  H2  non d ame     -10.017  19.653  67.324  0.00  0.00     0.036 H 
ATOM     27  H3  non d ame     -10.613  18.681  68.692  0.00  0.00     0.036 H 
ATOM     28  H4  non d ame      -8.895  18.608  68.231  0.00  0.00     0.036 H 
ENDBRANCH  21  25
ENDBRANCH  16  19
ENDBRANCH  13  15
BRANCH  13  29
ATOM     29  C8  non d ame     -12.627  11.930  63.222  0.00  0.00    -0.049 C 
ATOM     30  H7  non d ame     -12.484  12.712  62.476  0.00  0.00     0.030 H 
ATOM     31  H8  non d ame     -12.479  10.954  62.758  0.00  0.00     0.030 H 
ATOM     32  H9  non d ame     -13.638  11.992  63.622  0.00  0.00     0.030 H 
ENDBRANCH  13  29
ENDBRANCH  10  13
ENDBRANCH   7   9
BRANCH   7  33
ATOM     33  C11 non d ame      -7.016  10.798  65.649  0.00  0.00    -0.033 C 
ATOM     34  H12 non d ame      -6.545  11.632  65.129  0.00  0.00     0.042 H 
BRANCH  33  35
ATOM     35  C12 non d ame      -7.567  11.340  67.004  0.00  0.00    -0.071 C 
ATOM     36  H13 non d ame      -6.741  11.715  67.608  0.00  0.00     0.028 H 
ATOM     37  H14 non d ame      -8.273  12.148  66.812  0.00  0.00     0.028 H 
ATOM     38  H15 non d ame      -8.073  10.536  67.538  0.00  0.00     0.028 H 
ENDBRANCH  33  35
BRANCH  33  39
ATOM     39  C13 non d ame      -5.932   9.696  65.879  0.00  0.00    -0.071 C 
ATOM     40  H16 non d ame      -5.610   9.297  64.917  0.00  0.00     0.028 H 
ATOM     41  H17 non d ame      -5.077  10.130  66.397  0.00  0.00     0.028 H 
ATOM     42  H18 non d ame      -6.354   8.893  66.482  0.00  0.00     0.028 H 
ENDBRANCH  33  39
ENDBRANCH   7  33
ENDBRANCH   4   7
ENDBRANCH   1   3
BRANCH   1  43
ATOM     43  C15 non d ame     -10.277   6.742  67.551  0.00  0.00     0.240 C 
ATOM     44  O5  non d ame     -11.330   6.381  67.133  0.00  0.00    -0.271 OA
ATOM     45  N6  non d ame     -10.114   7.026  69.005  0.00  0.00    -0.355 N 
ATOM     46  H46 non d ame      -9.224   7.329  69.372  0.00  0.00     0.162 HD
BRANCH  45  47
ATOM     47  C20 non d ame     -11.267   6.863  69.917  0.00  0.00     0.013 C 
ATOM     48  H30 non d ame     -12.112   6.507  69.329  0.00  0.00     0.072 H 
BRANCH  47  49
ATOM     49  C21 non d ame     -11.601   8.198  70.544  0.00  0.00    -0.038 C 
ATOM     50  H31 non d ame     -12.578   8.474  70.146  0.00  0.00     0.036 H 
ATOM     51  H32 non d ame     -11.468   8.060  71.618  0.00  0.00     0.036 H 
BRANCH  49  52
ATOM     52  C22 non d ame     -10.625   9.318  70.124  0.00  0.00     0.018 C 
ATOM     53  H33 non d ame     -10.509   9.954  71.003  0.00  0.00     0.048 H 
ATOM     54  H34 non d ame      -9.758   8.811  69.700  0.00  0.00     0.048 H 
BRANCH  52  55
ATOM     55  C23 non d ame     -11.176  10.239  69.000  0.00  0.00     0.259 C 
ATOM     56  O7  non d ame     -10.973   9.983  67.858  0.00  0.00    -0.265 OA
BRANCH  55  57
ATOM     57  O8  non d ame     -11.914  11.403  69.351  0.00  0.00    -0.317 OA
BRANCH  57  58
ATOM     58  C29 non d ame     -12.365  11.421  70.709  0.00  0.00     0.052 C 
ATOM     59  H47 non d ame     -13.291  10.848  70.721  0.00  0.00     0.082 H 
ATOM     60  H48 non d ame     -11.514  11.092  71.306  0.00  0.00     0.082 H 
BRANCH  58  61
ATOM     61  C35 non d ame     -12.690  12.890  71.087  0.00  0.00    -0.034 A 
ATOM     62  C30 non d ame     -12.189  13.934  70.316  0.00  0.00    -0.075 A 
ATOM     63  C31 non d ame     -12.481  15.254  70.655  0.00  0.00    -0.082 A 
ATOM     64  H49 non d ame     -11.569  13.719  69.448  0.00  0.00     0.084 H 
ATOM     65  C32 non d ame     -13.276  15.528  71.772  0.00  0.00    -0.083 A 
ATOM     66  H50 non d ame     -12.089  16.070  70.049  0.00  0.00     0.083 H 
ATOM     67  C33 non d ame     -13.772  14.483  72.540  0.00  0.00    -0.082 A 
ATOM     68  H51 non d ame     -13.510  16.558  72.044  0.00  0.00     0.083 H 
ATOM     69  C34 non d ame     -13.484  13.162  72.203  0.00  0.00    -0.075 A 
ATOM     70  H52 non d ame     -14.389  14.701  73.411  0.00  0.00     0.083 H 
ATOM     71  H53 non d ame     -13.878  12.346  72.811  0.00  0.00     0.084 H 
ENDBRANCH  58  61
ENDBRANCH  57  58
ENDBRANCH  55  57
ENDBRANCH  52  55
ENDBRANCH  49  52
ENDBRANCH  47  49
BRANCH  47  72
ATOM     72  C24 non d ame     -10.921   5.858  71.013  0.00  0.00    -0.039 C 
ATOM     73  H35 non d ame     -11.013   6.406  71.950  0.00  0.00     0.036 H 
ATOM     74  H36 non d ame     -11.555   4.992  70.823  0.00  0.00     0.036 H 
BRANCH  72  75
ATOM     75  C25 non d ame      -9.401   5.362  70.903  0.00  0.00    -0.001 C 
ATOM     76  C26 non d ame      -9.351   3.831  70.308  0.00  0.00    -0.035 C 
ATOM     77  C27 non d ame      -8.591   3.067  71.128  0.00  0.00     0.085 C 
ATOM     78  H38 non d ame     -10.338   3.372  70.375  0.00  0.00     0.036 H 
ATOM     79  H39 non d ame      -8.806   3.813  69.364  0.00  0.00     0.036 H 
ATOM     80  N5  non d ame      -8.385   3.855  72.399  0.00  0.00    -0.049 N 
ATOM     81  H40 non d ame      -9.194   2.186  71.349  0.00  0.00     0.075 H 
ATOM     82  H41 non d ame      -7.633   2.959  70.619  0.00  0.00     0.075 H 
ATOM     83  C28 non d ame      -8.822   5.371  72.058  0.00  0.00     0.193 C 
ATOM     84  H42 non d ame      -9.033   3.479  73.077  0.00  0.00     0.280 HD
ATOM     85  H43 non d ame      -7.393   3.841  72.588  0.00  0.00     0.280 HD
ATOM     86  H44 non d ame      -8.068   6.142  71.897  0.00  0.00     0.129 H 
ATOM     87  H37 non d ame      -8.759   6.102  70.424  0.00  0.00     0.046 H 
BRANCH  83  88
ATOM     88  O6  non d ame      -9.675   5.881  73.085  0.00  0.00    -0.369 OA
ATOM     89  H45 non d ame     -10.579   5.609  72.914  0.00  0.00     0.212 HD
ENDBRANCH  83  88
ENDBRANCH  72  75
ENDBRANCH  47  72
ENDBRANCH  45  47
ENDBRANCH   1  43
BRANCH   1  90
ATOM     90  C16 non d ame      -7.818   6.333  67.216  0.00  0.00    -0.035 C 
ATOM     91  H21 non d ame      -7.127   7.172  67.296  0.00  0.00     0.037 H 
ATOM     92  H22 non d ame      -8.160   5.821  68.115  0.00  0.00     0.037 H 
BRANCH  90  93
ATOM     93  C17 non d ame      -7.105   5.257  66.338  0.00  0.00    -0.059 C 
ATOM     94  H23 non d ame      -7.720   5.091  65.454  0.00  0.00     0.038 H 
BRANCH  93  95
ATOM     95  C18 non d ame      -5.695   5.726  65.858  0.00  0.00    -0.073 C 
ATOM     96  H24 non d ame      -5.668   5.736  64.768  0.00  0.00     0.028 H 
ATOM     97  H25 non d ame      -5.499   6.730  66.234  0.00  0.00     0.028 H 
ATOM     98  H26 non d ame      -4.936   5.042  66.235  0.00  0.00     0.028 H 
ENDBRANCH  93  95
BRANCH  93  99
ATOM     99  C19 non d ame      -7.011   3.921  67.081  0.00  0.00    -0.073 C 
ATOM    100  H27 non d ame      -6.201   3.327  66.658  0.00  0.00     0.028 H 
ATOM    101  H28 non d ame      -6.814   4.105  68.137  0.00  0.00     0.028 H 
ATOM    102  H29 non d ame      -7.951   3.380  66.975  0.00  0.00     0.028 H 
ENDBRANCH  93  99
ENDBRANCH  90  93
ENDBRANCH   1  90
TORSDOF 26
ENDMDL
MODEL 12
REMARK VINA RESULT:      -5.9      2.938      7.528
REMARK  26 active torsions:
REMARK  status: ('A' for Active; 'I' for Inactive)
REMARK    1  A    between atoms: C2_2  and  C3_3 
REMARK    2  A    between atoms: C4_6  and  C5_7 
REMARK       I    between atoms: C5_7  and  N2_9 
REMARK    3  A    between atoms: N2_9  and  C6_10 
REMARK    4  A    between atoms: C6_10  and  C7_11 
REMARK    5  A    between atoms: C6_10  and  C8_13 
REMARK       I    between atoms: C7_11  and  N3_14 
REMARK    6  A    between atoms: N3_14  and  C9_15 
REMARK    7  A    between atoms: C9_15  and  C10_16 
REMARK    8  A    between atoms: C9_15  and  C11_18 
REMARK       I    between atoms: C10_16  and  N4_21 
REMARK    9  A    between atoms: C11_18  and  C12_19 
REMARK   10  A    between atoms: C11_18  and  C13_20 
REMARK   11  A    between atoms: N4_21  and  C14_22 
REMARK   12  A    between atoms: C14_22  and  C15_23 
REMARK   13  A    between atoms: C14_22  and  C16_25 
REMARK       I    between atoms: C15_23  and  N6_40 
REMARK   14  A    between atoms: C16_25  and  C17_26 
REMARK   15  A    between atoms: C17_26  and  C18_27 
REMARK   16  A    between atoms: C17_26  and  C19_28 
REMARK   17  A    between atoms: C20_29  and  C21_30 
REMARK   18  A    between atoms: C20_29  and  C24_33 
REMARK   19  A    between atoms: C20_29  and  N6_40 
REMARK   20  A    between atoms: C21_30  and  C22_31 
REMARK   21  A    between atoms: C22_31  and  C23_32 
REMARK   22  A    between atoms: C23_32  and  O8_43 
REMARK   23  A    between atoms: C24_33  and  C25_34 
REMARK   24  A    between atoms: C28_38  and  O6_39 
REMARK   25  A    between atoms: C29_42  and  O8_43 
REMARK   26  A    between atoms: C29_42  and  C35_49 
ROOT
ATOM      1  C14 non d ame      -6.656  12.794  67.829  0.00  0.00     0.089 C 
ATOM      2  H20 non d ame      -5.946  13.394  67.261  0.00  0.00     0.087 H 
ENDROOT
BRANCH   1   3
ATOM      3  N4  non d ame      -7.895  13.551  67.921  0.00  0.00    -0.346 N 
ATOM      4  C10 non d ame      -7.956  14.976  67.430  0.00  0.00     0.241 C 
ATOM      5  O4  non d ame      -6.992  15.492  66.966  0.00  0.00    -0.271 OA
ATOM      6  H19 non d ame      -8.703  13.094  68.322  0.00  0.00     0.163 HD
BRANCH   4   7
ATOM      7  C9  non d ame      -9.247  15.743  67.528  0.00  0.00     0.092 C 
ATOM      8  H11 non d ame      -9.796  15.645  66.591  0.00  0.00     0.088 H 
BRANCH   7   9
ATOM      9  N3  non d ame     -10.084  15.160  68.581  0.00  0.00    -0.346 N 
ATOM     10  C7  non d ame     -11.371  14.598  68.253  0.00  0.00     0.240 C 
ATOM     11  O3  non d ame     -11.750  14.609  67.145  0.00  0.00    -0.271 OA
ATOM     12  H10 non d ame      -9.771  15.146  69.541  0.00  0.00     0.163 HD
BRANCH  10  13
ATOM     13  C6  non d ame     -12.257  13.983  69.379  0.00  0.00     0.086 C 
ATOM     14  H6  non d ame     -13.191  13.567  69.001  0.00  0.00     0.086 H 
BRANCH  13  15
ATOM     15  N2  non d ame     -11.535  12.885  70.000  0.00  0.00    -0.343 N 
ATOM     16  C5  non d ame     -11.667  11.533  69.450  0.00  0.00     0.273 C 
ATOM     17  O2  non d ame     -12.358  11.340  68.511  0.00  0.00    -0.266 OA
ATOM     18  H5  non d ame     -10.948  13.058  70.803  0.00  0.00     0.163 HD
BRANCH  16  19
ATOM     19  C4  non d ame     -10.907  10.363  70.095  0.00  0.00     0.154 A 
ATOM     20  C1  non d ame      -9.580   9.922  69.791  0.00  0.00    -0.017 A 
ATOM     21  C2  non d ame      -9.355   8.824  70.652  0.00  0.00     0.077 A 
ATOM     22  H1  non d ame      -8.886  10.334  69.058  0.00  0.00     0.091 H 
ATOM     23  O1  non d ame     -10.433   8.664  71.364  0.00  0.00    -0.218 OA
ATOM     24  N1  non d ame     -11.352   9.549  71.057  0.00  0.00    -0.123 NA
BRANCH  21  25
ATOM     25  C3  non d ame      -8.086   7.987  70.733  0.00  0.00    -0.029 C 
ATOM     26  H2  non d ame      -8.302   7.046  71.241  0.00  0.00     0.036 H 
ATOM     27  H3  non d ame      -7.723   7.781  69.726  0.00  0.00     0.036 H 
ATOM     28  H4  non d ame      -7.324   8.533  71.289  0.00  0.00     0.036 H 
ENDBRANCH  21  25
ENDBRANCH  16  19
ENDBRANCH  13  15
BRANCH  13  29
ATOM     29  C8  non d ame     -12.575  15.038  70.407  0.00  0.00    -0.049 C 
ATOM     30  H7  non d ame     -13.351  15.700  70.022  0.00  0.00     0.030 H 
ATOM     31  H8  non d ame     -12.926  14.559  71.322  0.00  0.00     0.030 H 
ATOM     32  H9  non d ame     -11.678  15.618  70.622  0.00  0.00     0.030 H 
ENDBRANCH  13  29
ENDBRANCH  10  13
ENDBRANCH   7   9
BRANCH   7  33
ATOM     33  C11 non d ame      -8.943  17.230  67.874  0.00  0.00    -0.033 C 
ATOM     34  H12 non d ame      -7.985  17.257  68.394  0.00  0.00     0.042 H 
BRANCH  33  35
ATOM     35  C12 non d ame      -8.800  18.097  66.584  0.00  0.00    -0.071 C 
ATOM     36  H13 non d ame      -9.336  17.618  65.765  0.00  0.00     0.028 H 
ATOM     37  H14 non d ame      -9.220  19.086  66.763  0.00  0.00     0.028 H 
ATOM     38  H15 non d ame      -7.746  18.191  66.326  0.00  0.00     0.028 H 
ENDBRANCH  33  35
BRANCH  33  39
ATOM     39  C13 non d ame     -10.030  17.815  68.832  0.00  0.00    -0.071 C 
ATOM     40  H16 non d ame     -10.437  18.730  68.404  0.00  0.00     0.028 H 
ATOM     41  H17 non d ame     -10.830  17.086  68.962  0.00  0.00     0.028 H 
ATOM     42  H18 non d ame      -9.579  18.036  69.800  0.00  0.00     0.028 H 
ENDBRANCH  33  39
ENDBRANCH   7  33
ENDBRANCH   4   7
ENDBRANCH   1   3
BRANCH   1  43
ATOM     43  C15 non d ame      -6.959  11.432  67.139  0.00  0.00     0.240 C 
ATOM     44  O5  non d ame      -6.654  10.416  67.677  0.00  0.00    -0.271 OA
ATOM     45  N6  non d ame      -7.636  11.394  65.812  0.00  0.00    -0.355 N 
ATOM     46  H46 non d ame      -7.904  12.250  65.347  0.00  0.00     0.162 HD
BRANCH  45  47
ATOM     47  C20 non d ame      -7.918  10.092  65.170  0.00  0.00     0.013 C 
ATOM     48  H30 non d ame      -7.759   9.310  65.913  0.00  0.00     0.072 H 
BRANCH  47  49
ATOM     49  C21 non d ame      -6.976   9.894  64.004  0.00  0.00    -0.038 C 
ATOM     50  H31 non d ame      -7.569   9.421  63.222  0.00  0.00     0.036 H 
ATOM     51  H32 non d ame      -6.518  10.869  63.828  0.00  0.00     0.036 H 
BRANCH  49  52
ATOM     52  C22 non d ame      -5.820   8.922  64.325  0.00  0.00     0.018 C 
ATOM     53  H33 non d ame      -4.917   9.533  64.346  0.00  0.00     0.048 H 
ATOM     54  H34 non d ame      -6.132   8.377  65.216  0.00  0.00     0.048 H 
BRANCH  52  55
ATOM     55  C23 non d ame      -5.583   7.848  63.226  0.00  0.00     0.259 C 
ATOM     56  O7  non d ame      -4.685   7.961  62.458  0.00  0.00    -0.265 OA
BRANCH  55  57
ATOM     57  O8  non d ame      -6.462   6.733  63.140  0.00  0.00    -0.317 OA
BRANCH  57  58
ATOM     58  C29 non d ame      -6.929   6.259  64.407  0.00  0.00     0.052 C 
ATOM     59  H47 non d ame      -6.142   5.608  64.786  0.00  0.00     0.082 H 
ATOM     60  H48 non d ame      -7.217   7.148  64.967  0.00  0.00     0.082 H 
BRANCH  58  61
ATOM     61  C35 non d ame      -8.198   5.402  64.159  0.00  0.00    -0.034 A 
ATOM     62  C30 non d ame      -8.560   5.051  62.863  0.00  0.00    -0.075 A 
ATOM     63  C31 non d ame      -9.701   4.282  62.640  0.00  0.00    -0.082 A 
ATOM     64  H49 non d ame      -7.950   5.379  62.021  0.00  0.00     0.084 H 
ATOM     65  C32 non d ame     -10.483   3.865  63.720  0.00  0.00    -0.083 A 
ATOM     66  H50 non d ame      -9.980   4.007  61.623  0.00  0.00     0.083 H 
ATOM     67  C33 non d ame     -10.120   4.220  65.012  0.00  0.00    -0.082 A 
ATOM     68  H51 non d ame     -11.376   3.263  63.555  0.00  0.00     0.083 H 
ATOM     69  C34 non d ame      -8.979   4.987  65.239  0.00  0.00    -0.075 A 
ATOM     70  H52 non d ame     -10.734   3.895  65.853  0.00  0.00     0.083 H 
ATOM     71  H53 non d ame      -8.700   5.261  66.258  0.00  0.00     0.084 H 
ENDBRANCH  58  61
ENDBRANCH  57  58
ENDBRANCH  55  57
ENDBRANCH  52  55
ENDBRANCH  49  52
ENDBRANCH  47  49
BRANCH  47  72
ATOM     72  C24 non d ame      -9.360  10.063  64.671  0.00  0.00    -0.039 C 
ATOM     73  H35 non d ame      -9.317   9.607  63.682  0.00  0.00     0.036 H 
ATOM     74  H36 non d ame      -9.934   9.587  65.466  0.00  0.00     0.036 H 
BRANCH  72  75
ATOM     75  C25 non d ame      -9.951  11.541  64.483  0.00  0.00    -0.001 C 
ATOM     76  C26 non d ame     -11.290  11.733  65.418  0.00  0.00    -0.035 C 
ATOM     77  C27 non d ame     -12.296  12.210  64.648  0.00  0.00     0.085 C 
ATOM     78  H38 non d ame     -11.659  10.761  65.746  0.00  0.00     0.036 H 
ATOM     79  H39 non d ame     -11.127  12.528  66.146  0.00  0.00     0.036 H 
ATOM     80  N5  non d ame     -11.865  12.053  63.210  0.00  0.00    -0.049 N 
ATOM     81  H40 non d ame     -13.146  11.553  64.838  0.00  0.00     0.075 H 
ATOM     82  H41 non d ame     -12.365  13.272  64.883  0.00  0.00     0.075 H 
ATOM     83  C28 non d ame     -10.277  11.761  63.252  0.00  0.00     0.193 C 
ATOM     84  H42 non d ame     -12.333  11.230  62.858  0.00  0.00     0.280 HD
ATOM     85  H43 non d ame     -12.015  12.948  62.766  0.00  0.00     0.280 HD
ATOM     86  H44 non d ame      -9.563  12.543  62.994  0.00  0.00     0.129 H 
ATOM     87  H37 non d ame      -9.180  12.307  64.558  0.00  0.00     0.046 H 
BRANCH  83  88
ATOM     88  O6  non d ame      -9.957  10.657  62.404  0.00  0.00    -0.369 OA
ATOM     89  H45 non d ame      -9.463  10.971  61.643  0.00  0.00     0.212 HD
ENDBRANCH  83  88
ENDBRANCH  72  75
ENDBRANCH  47  72
ENDBRANCH  45  47
ENDBRANCH   1  43
BRANCH   1  90
ATOM     90  C16 non d ame      -6.119  12.548  69.230  0.00  0.00    -0.035 C 
ATOM     91  H21 non d ame      -6.959  12.738  69.898  0.00  0.00     0.037 H 
ATOM     92  H22 non d ame      -5.664  11.559  69.195  0.00  0.00     0.037 H 
BRANCH  90  93
ATOM     93  C17 non d ame      -4.988  13.540  69.650  0.00  0.00    -0.059 C 
ATOM     94  H23 non d ame      -4.317  13.010  70.325  0.00  0.00     0.038 H 
BRANCH  93  95
ATOM     95  C18 non d ame      -4.148  14.028  68.428  0.00  0.00    -0.073 C 
ATOM     96  H24 non d ame      -3.383  14.728  68.769  0.00  0.00     0.028 H 
ATOM     97  H25 non d ame      -3.669  13.173  67.951  0.00  0.00     0.028 H 
ATOM     98  H26 non d ame      -4.801  14.525  67.711  0.00  0.00     0.028 H 
ENDBRANCH  93  95
BRANCH  93  99
ATOM     99  C19 non d ame      -5.565  14.729  70.424  0.00  0.00    -0.073 C 
ATOM    100  H27 non d ame      -6.486  14.424  70.922  0.00  0.00     0.028 H 
ATOM    101  H28 non d ame      -4.842  15.063  71.169  0.00  0.00     0.028 H 
ATOM    102  H29 non d ame      -5.778  15.543  69.733  0.00  0.00     0.028 H 
ENDBRANCH  93  99
ENDBRANCH  90  93
ENDBRANCH   1  90
TORSDOF 26
ENDMDL
MODEL 13
REMARK VINA RESULT:      -5.8      3.970      7.724
REMARK  26 active torsions:
REMARK  status: ('A' for Active; 'I' for Inactive)
REMARK    1  A    between atoms: C2_2  and  C3_3 
REMARK    2  A    between atoms: C4_6  and  C5_7 
REMARK       I    between atoms: C5_7  and  N2_9 
REMARK    3  A    between atoms: N2_9  and  C6_10 
REMARK    4  A    between atoms: C6_10  and  C7_11 
REMARK    5  A    between atoms: C6_10  and  C8_13 
REMARK       I    between atoms: C7_11  and  N3_14 
REMARK    6  A    between atoms: N3_14  and  C9_15 
REMARK    7  A    between atoms: C9_15  and  C10_16 
REMARK    8  A    between atoms: C9_15  and  C11_18 
REMARK       I    between atoms: C10_16  and  N4_21 
REMARK    9  A    between atoms: C11_18  and  C12_19 
REMARK   10  A    between atoms: C11_18  and  C13_20 
REMARK   11  A    between atoms: N4_21  and  C14_22 
REMARK   12  A    between atoms: C14_22  and  C15_23 
REMARK   13  A    between atoms: C14_22  and  C16_25 
REMARK       I    between atoms: C15_23  and  N6_40 
REMARK   14  A    between atoms: C16_25  and  C17_26 
REMARK   15  A    between atoms: C17_26  and  C18_27 
REMARK   16  A    between atoms: C17_26  and  C19_28 
REMARK   17  A    between atoms: C20_29  and  C21_30 
REMARK   18  A    between atoms: C20_29  and  C24_33 
REMARK   19  A    between atoms: C20_29  and  N6_40 
REMARK   20  A    between atoms: C21_30  and  C22_31 
REMARK   21  A    between atoms: C22_31  and  C23_32 
REMARK   22  A    between atoms: C23_32  and  O8_43 
REMARK   23  A    between atoms: C24_33  and  C25_34 
REMARK   24  A    between atoms: C28_38  and  O6_39 
REMARK   25  A    between atoms: C29_42  and  O8_43 
REMARK   26  A    between atoms: C29_42  and  C35_49 
ROOT
ATOM      1  C14 non d ame     -11.473   8.101  70.549  0.00  0.00     0.089 C 
ATOM      2  H20 non d ame     -12.435   7.799  70.136  0.00  0.00     0.087 H 
ENDROOT
BRANCH   1   3
ATOM      3  N4  non d ame     -10.620   6.923  70.581  0.00  0.00    -0.346 N 
ATOM      4  C10 non d ame     -10.575   5.982  69.403  0.00  0.00     0.241 C 
ATOM      5  O4  non d ame     -11.238   6.194  68.441  0.00  0.00    -0.271 OA
ATOM      6  H19 non d ame     -10.065   6.760  71.410  0.00  0.00     0.163 HD
BRANCH   4   7
ATOM      7  C9  non d ame      -9.683   4.771  69.450  0.00  0.00     0.092 C 
ATOM      8  H11 non d ame     -10.247   3.896  69.126  0.00  0.00     0.088 H 
BRANCH   7   9
ATOM      9  N3  non d ame      -8.574   4.943  68.506  0.00  0.00    -0.346 N 
ATOM     10  C7  non d ame      -8.622   4.307  67.213  0.00  0.00     0.240 C 
ATOM     11  O3  non d ame      -9.545   3.650  66.916  0.00  0.00    -0.271 OA
ATOM     12  H10 non d ame      -7.771   5.504  68.749  0.00  0.00     0.163 HD
BRANCH  10  13
ATOM     13  C6  non d ame      -7.438   4.491  66.214  0.00  0.00     0.086 C 
ATOM     14  H6  non d ame      -7.612   3.998  65.257  0.00  0.00     0.086 H 
BRANCH  13  15
ATOM     15  N2  non d ame      -7.279   5.907  65.929  0.00  0.00    -0.343 N 
ATOM     16  C5  non d ame      -6.409   6.328  64.828  0.00  0.00     0.273 C 
ATOM     17  O2  non d ame      -5.841   5.519  64.180  0.00  0.00    -0.266 OA
ATOM     18  H5  non d ame      -7.766   6.592  66.489  0.00  0.00     0.163 HD
BRANCH  16  19
ATOM     19  C4  non d ame      -6.233   7.821  64.513  0.00  0.00     0.154 A 
ATOM     20  C1  non d ame      -5.062   8.464  64.000  0.00  0.00    -0.017 A 
ATOM     21  C2  non d ame      -5.414   9.828  63.890  0.00  0.00     0.077 A 
ATOM     22  H1  non d ame      -4.103   8.011  63.745  0.00  0.00     0.091 H 
ATOM     23  O1  non d ame      -6.646   9.944  64.294  0.00  0.00    -0.218 OA
ATOM     24  N1  non d ame      -7.144   8.786  64.664  0.00  0.00    -0.123 NA
BRANCH  21  25
ATOM     25  C3  non d ame      -4.519  10.953  63.389  0.00  0.00    -0.029 C 
ATOM     26  H2  non d ame      -3.484  10.609  63.358  0.00  0.00     0.036 H 
ATOM     27  H3  non d ame      -4.833  11.249  62.388  0.00  0.00     0.036 H 
ATOM     28  H4  non d ame      -4.597  11.808  64.061  0.00  0.00     0.036 H 
ENDBRANCH  21  25
ENDBRANCH  16  19
ENDBRANCH  13  15
BRANCH  13  29
ATOM     29  C8  non d ame      -6.173   3.942  66.823  0.00  0.00    -0.049 C 
ATOM     30  H7  non d ame      -6.352   2.929  67.182  0.00  0.00     0.030 H 
ATOM     31  H8  non d ame      -5.385   3.926  66.069  0.00  0.00     0.030 H 
ATOM     32  H9  non d ame      -5.866   4.573  67.655  0.00  0.00     0.030 H 
ENDBRANCH  13  29
ENDBRANCH  10  13
ENDBRANCH   7   9
BRANCH   7  33
ATOM     33  C11 non d ame      -9.113   4.601  70.889  0.00  0.00    -0.033 C 
ATOM     34  H12 non d ame      -9.500   5.422  71.494  0.00  0.00     0.042 H 
BRANCH  33  35
ATOM     35  C12 non d ame      -9.601   3.269  71.539  0.00  0.00    -0.071 C 
ATOM     36  H13 non d ame     -10.467   3.469  72.170  0.00  0.00     0.028 H 
ATOM     37  H14 non d ame      -9.877   2.562  70.757  0.00  0.00     0.028 H 
ATOM     38  H15 non d ame      -8.800   2.846  72.144  0.00  0.00     0.028 H 
ENDBRANCH  33  35
BRANCH  33  39
ATOM     39  C13 non d ame      -7.554   4.693  70.888  0.00  0.00    -0.071 C 
ATOM     40  H16 non d ame      -7.184   4.612  71.909  0.00  0.00     0.028 H 
ATOM     41  H17 non d ame      -7.142   3.883  70.286  0.00  0.00     0.028 H 
ATOM     42  H18 non d ame      -7.248   5.651  70.466  0.00  0.00     0.028 H 
ENDBRANCH  33  39
ENDBRANCH   7  33
ENDBRANCH   4   7
ENDBRANCH   1   3
BRANCH   1  43
ATOM     43  C15 non d ame     -10.779   9.193  69.685  0.00  0.00     0.240 C 
ATOM     44  O5  non d ame      -9.820   9.758  70.105  0.00  0.00    -0.271 OA
ATOM     45  N6  non d ame     -11.302   9.528  68.331  0.00  0.00    -0.355 N 
ATOM     46  H46 non d ame     -12.112   9.052  67.961  0.00  0.00     0.162 HD
BRANCH  45  47
ATOM     47  C20 non d ame     -10.629  10.567  67.521  0.00  0.00     0.013 C 
ATOM     48  H30 non d ame      -9.629  10.713  67.928  0.00  0.00     0.072 H 
BRANCH  47  49
ATOM     49  C21 non d ame     -11.415  11.856  67.609  0.00  0.00    -0.038 C 
ATOM     50  H31 non d ame     -11.181  12.407  66.698  0.00  0.00     0.036 H 
ATOM     51  H32 non d ame     -12.444  11.559  67.819  0.00  0.00     0.036 H 
BRANCH  49  52
ATOM     52  C22 non d ame     -10.971  12.750  68.787  0.00  0.00     0.018 C 
ATOM     53  H33 non d ame     -11.883  12.999  69.330  0.00  0.00     0.048 H 
ATOM     54  H34 non d ame     -10.170  12.203  69.287  0.00  0.00     0.048 H 
BRANCH  52  55
ATOM     55  C23 non d ame     -10.354  14.106  68.345  0.00  0.00     0.259 C 
ATOM     56  O7  non d ame      -9.873  14.225  67.265  0.00  0.00    -0.265 OA
BRANCH  55  57
ATOM     57  O8  non d ame     -10.356  15.202  69.251  0.00  0.00    -0.317 OA
BRANCH  57  58
ATOM     58  C29 non d ame     -11.590  15.924  69.290  0.00  0.00     0.052 C 
ATOM     59  H47 non d ame     -11.316  16.978  69.246  0.00  0.00     0.082 H 
ATOM     60  H48 non d ame     -12.210  15.490  68.507  0.00  0.00     0.082 H 
BRANCH  58  61
ATOM     61  C35 non d ame     -12.264  15.648  70.660  0.00  0.00    -0.034 A 
ATOM     62  C30 non d ame     -11.690  16.136  71.829  0.00  0.00    -0.075 A 
ATOM     63  C31 non d ame     -12.295  15.888  73.060  0.00  0.00    -0.082 A 
ATOM     64  H49 non d ame     -10.767  16.712  71.782  0.00  0.00     0.084 H 
ATOM     65  C32 non d ame     -13.478  15.147  73.120  0.00  0.00    -0.083 A 
ATOM     66  H50 non d ame     -11.844  16.273  73.975  0.00  0.00     0.083 H 
ATOM     67  C33 non d ame     -14.046  14.659  71.950  0.00  0.00    -0.082 A 
ATOM     68  H51 non d ame     -13.958  14.948  74.078  0.00  0.00     0.083 H 
ATOM     69  C34 non d ame     -13.445  14.907  70.718  0.00  0.00    -0.075 A 
ATOM     70  H52 non d ame     -14.967  14.078  72.000  0.00  0.00     0.083 H 
ATOM     71  H53 non d ame     -13.898  14.521  69.803  0.00  0.00     0.084 H 
ENDBRANCH  58  61
ENDBRANCH  57  58
ENDBRANCH  55  57
ENDBRANCH  52  55
ENDBRANCH  49  52
ENDBRANCH  47  49
BRANCH  47  72
ATOM     72  C24 non d ame     -10.550  10.116  66.065  0.00  0.00    -0.039 C 
ATOM     73  H35 non d ame      -9.640   9.520  65.994  0.00  0.00     0.036 H 
ATOM     74  H36 non d ame     -11.517   9.661  65.849  0.00  0.00     0.036 H 
BRANCH  72  75
ATOM     75  C25 non d ame     -10.380  11.359  65.068  0.00  0.00    -0.001 C 
ATOM     76  C26 non d ame     -11.816  12.142  64.897  0.00  0.00    -0.035 C 
ATOM     77  C27 non d ame     -12.083  12.281  63.577  0.00  0.00     0.085 C 
ATOM     78  H38 non d ame     -12.630  11.511  65.255  0.00  0.00     0.036 H 
ATOM     79  H39 non d ame     -11.727  13.169  65.250  0.00  0.00     0.036 H 
ATOM     80  N5  non d ame     -11.124  11.381  62.835  0.00  0.00    -0.049 N 
ATOM     81  H40 non d ame     -13.098  11.907  63.442  0.00  0.00     0.075 H 
ATOM     82  H41 non d ame     -11.848  13.319  63.341  0.00  0.00     0.075 H 
ATOM     83  C28 non d ame      -9.983  10.971  63.902  0.00  0.00     0.193 C 
ATOM     84  H42 non d ame     -11.645  10.552  62.587  0.00  0.00     0.280 HD
ATOM     85  H43 non d ame     -10.701  11.946  62.113  0.00  0.00     0.280 HD
ATOM     86  H44 non d ame      -8.997  11.435  63.863  0.00  0.00     0.129 H 
ATOM     87  H37 non d ame      -9.510  11.968  65.313  0.00  0.00     0.046 H 
BRANCH  83  88
ATOM     88  O6  non d ame      -9.746   9.564  63.853  0.00  0.00    -0.369 OA
ATOM     89  H45 non d ame      -9.773   9.204  64.741  0.00  0.00     0.212 HD
ENDBRANCH  83  88
ENDBRANCH  72  75
ENDBRANCH  47  72
ENDBRANCH  45  47
ENDBRANCH   1  43
BRANCH   1  90
ATOM     90  C16 non d ame     -11.662   8.616  71.968  0.00  0.00    -0.035 C 
ATOM     91  H21 non d ame     -11.648   7.728  72.601  0.00  0.00     0.037 H 
ATOM     92  H22 non d ame     -10.905   9.388  72.098  0.00  0.00     0.037 H 
BRANCH  90  93
ATOM     93  C17 non d ame     -13.043   9.305  72.205  0.00  0.00    -0.059 C 
ATOM     94  H23 non d ame     -13.206   9.357  73.282  0.00  0.00     0.038 H 
BRANCH  93  95
ATOM     95  C18 non d ame     -13.078  10.763  71.647  0.00  0.00    -0.073 C 
ATOM     96  H24 non d ame     -14.039  10.943  71.163  0.00  0.00     0.028 H 
ATOM     97  H25 non d ame     -12.948  11.470  72.467  0.00  0.00     0.028 H 
ATOM     98  H26 non d ame     -12.275  10.895  70.923  0.00  0.00     0.028 H 
ENDBRANCH  93  95
BRANCH  93  99
ATOM     99  C19 non d ame     -14.180   8.467  71.615  0.00  0.00    -0.073 C 
ATOM    100  H27 non d ame     -15.120   9.010  71.713  0.00  0.00     0.028 H 
ATOM    101  H28 non d ame     -13.980   8.275  70.561  0.00  0.00     0.028 H 
ATOM    102  H29 non d ame     -14.250   7.521  72.151  0.00  0.00     0.028 H 
ENDBRANCH  93  99
ENDBRANCH  90  93
ENDBRANCH   1  90
TORSDOF 26
ENDMDL
MODEL 14
REMARK VINA RESULT:      -5.8      3.283      8.185
REMARK  26 active torsions:
REMARK  status: ('A' for Active; 'I' for Inactive)
REMARK    1  A    between atoms: C2_2  and  C3_3 
REMARK    2  A    between atoms: C4_6  and  C5_7 
REMARK       I    between atoms: C5_7  and  N2_9 
REMARK    3  A    between atoms: N2_9  and  C6_10 
REMARK    4  A    between atoms: C6_10  and  C7_11 
REMARK    5  A    between atoms: C6_10  and  C8_13 
REMARK       I    between atoms: C7_11  and  N3_14 
REMARK    6  A    between atoms: N3_14  and  C9_15 
REMARK    7  A    between atoms: C9_15  and  C10_16 
REMARK    8  A    between atoms: C9_15  and  C11_18 
REMARK       I    between atoms: C10_16  and  N4_21 
REMARK    9  A    between atoms: C11_18  and  C12_19 
REMARK   10  A    between atoms: C11_18  and  C13_20 
REMARK   11  A    between atoms: N4_21  and  C14_22 
REMARK   12  A    between atoms: C14_22  and  C15_23 
REMARK   13  A    between atoms: C14_22  and  C16_25 
REMARK       I    between atoms: C15_23  and  N6_40 
REMARK   14  A    between atoms: C16_25  and  C17_26 
REMARK   15  A    between atoms: C17_26  and  C18_27 
REMARK   16  A    between atoms: C17_26  and  C19_28 
REMARK   17  A    between atoms: C20_29  and  C21_30 
REMARK   18  A    between atoms: C20_29  and  C24_33 
REMARK   19  A    between atoms: C20_29  and  N6_40 
REMARK   20  A    between atoms: C21_30  and  C22_31 
REMARK   21  A    between atoms: C22_31  and  C23_32 
REMARK   22  A    between atoms: C23_32  and  O8_43 
REMARK   23  A    between atoms: C24_33  and  C25_34 
REMARK   24  A    between atoms: C28_38  and  O6_39 
REMARK   25  A    between atoms: C29_42  and  O8_43 
REMARK   26  A    between atoms: C29_42  and  C35_49 
ROOT
ATOM      1  C14 non d ame      -9.907  10.292  64.142  0.00  0.00     0.089 C 
ATOM      2  H20 non d ame     -10.903   9.876  64.294  0.00  0.00     0.087 H 
ENDROOT
BRANCH   1   3
ATOM      3  N4  non d ame      -9.412  10.729  65.438  0.00  0.00    -0.346 N 
ATOM      4  C10 non d ame      -9.817   9.999  66.694  0.00  0.00     0.241 C 
ATOM      5  O4  non d ame     -10.546   9.063  66.636  0.00  0.00    -0.271 OA
ATOM      6  H19 non d ame      -8.795  11.529  65.466  0.00  0.00     0.163 HD
BRANCH   4   7
ATOM      7  C9  non d ame      -9.291  10.461  68.027  0.00  0.00     0.092 C 
ATOM      8  H11 non d ame      -8.203  10.522  67.982  0.00  0.00     0.088 H 
BRANCH   7   9
ATOM      9  N3  non d ame      -9.788  11.811  68.308  0.00  0.00    -0.346 N 
ATOM     10  C7  non d ame      -9.028  12.962  67.887  0.00  0.00     0.240 C 
ATOM     11  O3  non d ame      -8.012  12.820  67.323  0.00  0.00    -0.271 OA
ATOM     12  H10 non d ame     -10.661  11.950  68.795  0.00  0.00     0.163 HD
BRANCH  10  13
ATOM     13  C6  non d ame      -9.561  14.396  68.192  0.00  0.00     0.086 C 
ATOM     14  H6  non d ame     -10.382  14.690  67.538  0.00  0.00     0.086 H 
BRANCH  13  15
ATOM     15  N2  non d ame     -10.080  14.427  69.549  0.00  0.00    -0.343 N 
ATOM     16  C5  non d ame     -11.498  14.720  69.772  0.00  0.00     0.273 C 
ATOM     17  O2  non d ame     -12.211  14.931  68.854  0.00  0.00    -0.266 OA
ATOM     18  H5  non d ame      -9.464  14.247  70.329  0.00  0.00     0.163 HD
BRANCH  16  19
ATOM     19  C4  non d ame     -12.062  14.753  71.201  0.00  0.00     0.154 A 
ATOM     20  C1  non d ame     -11.609  15.564  72.290  0.00  0.00    -0.017 A 
ATOM     21  C2  non d ame     -12.449  15.221  73.373  0.00  0.00     0.077 A 
ATOM     22  H1  non d ame     -10.796  16.290  72.295  0.00  0.00     0.091 H 
ATOM     23  O1  non d ame     -13.285  14.320  72.945  0.00  0.00    -0.218 OA
ATOM     24  N1  non d ame     -13.077  14.030  71.681  0.00  0.00    -0.123 NA
BRANCH  21  25
ATOM     25  C3  non d ame     -12.390  15.802  74.779  0.00  0.00    -0.029 C 
ATOM     26  H2  non d ame     -13.177  15.359  75.390  0.00  0.00     0.036 H 
ATOM     27  H3  non d ame     -11.419  15.582  75.222  0.00  0.00     0.036 H 
ATOM     28  H4  non d ame     -12.531  16.882  74.734  0.00  0.00     0.036 H 
ENDBRANCH  21  25
ENDBRANCH  16  19
ENDBRANCH  13  15
BRANCH  13  29
ATOM     29  C8  non d ame      -8.441  15.394  68.046  0.00  0.00    -0.049 C 
ATOM     30  H7  non d ame      -7.833  15.135  67.179  0.00  0.00     0.030 H 
ATOM     31  H8  non d ame      -8.859  16.393  67.911  0.00  0.00     0.030 H 
ATOM     32  H9  non d ame      -7.820  15.378  68.941  0.00  0.00     0.030 H 
ENDBRANCH  13  29
ENDBRANCH  10  13
ENDBRANCH   7   9
BRANCH   7  33
ATOM     33  C11 non d ame      -9.776   9.490  69.142  0.00  0.00    -0.033 C 
ATOM     34  H12 non d ame     -10.230   8.628  68.652  0.00  0.00     0.042 H 
BRANCH  33  35
ATOM     35  C12 non d ame      -8.583   8.967  70.001  0.00  0.00    -0.071 C 
ATOM     36  H13 non d ame      -8.960   8.318  70.791  0.00  0.00     0.028 H 
ATOM     37  H14 non d ame      -7.897   8.406  69.366  0.00  0.00     0.028 H 
ATOM     38  H15 non d ame      -8.057   9.813  70.444  0.00  0.00     0.028 H 
ENDBRANCH  33  35
BRANCH  33  39
ATOM     39  C13 non d ame     -10.865  10.165  70.037  0.00  0.00    -0.071 C 
ATOM     40  H16 non d ame     -10.475  10.296  71.046  0.00  0.00     0.028 H 
ATOM     41  H17 non d ame     -11.127  11.137  69.619  0.00  0.00     0.028 H 
ATOM     42  H18 non d ame     -11.751   9.532  70.069  0.00  0.00     0.028 H 
ENDBRANCH  33  39
ENDBRANCH   7  33
ENDBRANCH   4   7
ENDBRANCH   1   3
BRANCH   1  43
ATOM     43  C15 non d ame      -8.915   9.244  63.560  0.00  0.00     0.240 C 
ATOM     44  O5  non d ame      -8.390   9.445  62.512  0.00  0.00    -0.271 OA
ATOM     45  N6  non d ame      -8.612   7.994  64.313  0.00  0.00    -0.355 N 
ATOM     46  H46 non d ame      -9.049   7.814  65.206  0.00  0.00     0.162 HD
BRANCH  45  47
ATOM     47  C20 non d ame      -7.666   7.009  63.747  0.00  0.00     0.013 C 
ATOM     48  H30 non d ame      -7.659   7.134  62.664  0.00  0.00     0.072 H 
BRANCH  47  49
ATOM     49  C21 non d ame      -8.126   5.612  64.102  0.00  0.00    -0.038 C 
ATOM     50  H31 non d ame      -8.628   5.232  63.212  0.00  0.00     0.036 H 
ATOM     51  H32 non d ame      -7.243   5.103  64.491  0.00  0.00     0.036 H 
BRANCH  49  52
ATOM     52  C22 non d ame      -9.174   5.596  65.236  0.00  0.00     0.018 C 
ATOM     53  H33 non d ame      -9.248   6.627  65.584  0.00  0.00     0.048 H 
ATOM     54  H34 non d ame     -10.050   5.097  64.821  0.00  0.00     0.048 H 
BRANCH  52  55
ATOM     55  C23 non d ame      -8.745   4.757  66.471  0.00  0.00     0.259 C 
ATOM     56  O7  non d ame      -7.656   4.286  66.532  0.00  0.00    -0.265 OA
BRANCH  55  57
ATOM     57  O8  non d ame      -9.675   4.545  67.526  0.00  0.00    -0.317 OA
BRANCH  57  58
ATOM     58  C29 non d ame     -10.475   5.689  67.838  0.00  0.00     0.052 C 
ATOM     59  H47 non d ame      -9.931   6.546  67.442  0.00  0.00     0.082 H 
ATOM     60  H48 non d ame     -11.474   5.460  67.469  0.00  0.00     0.082 H 
BRANCH  58  61
ATOM     61  C35 non d ame     -10.541   5.820  69.383  0.00  0.00    -0.034 A 
ATOM     62  C30 non d ame     -11.627   6.449  69.983  0.00  0.00    -0.075 A 
ATOM     63  C31 non d ame     -11.687   6.567  71.371  0.00  0.00    -0.082 A 
ATOM     64  H49 non d ame     -12.431   6.850  69.366  0.00  0.00     0.084 H 
ATOM     65  C32 non d ame     -10.653   6.054  72.159  0.00  0.00    -0.083 A 
ATOM     66  H50 non d ame     -12.540   7.059  71.837  0.00  0.00     0.083 H 
ATOM     67  C33 non d ame      -9.570   5.429  71.557  0.00  0.00    -0.082 A 
ATOM     68  H51 non d ame     -10.692   6.142  73.245  0.00  0.00     0.083 H 
ATOM     69  C34 non d ame      -9.508   5.308  70.170  0.00  0.00    -0.075 A 
ATOM     70  H52 non d ame      -8.764   5.033  72.175  0.00  0.00     0.083 H 
ATOM     71  H53 non d ame      -8.653   4.815  69.704  0.00  0.00     0.084 H 
ENDBRANCH  58  61
ENDBRANCH  57  58
ENDBRANCH  55  57
ENDBRANCH  52  55
ENDBRANCH  49  52
ENDBRANCH  47  49
BRANCH  47  72
ATOM     72  C24 non d ame      -6.270   7.246  64.318  0.00  0.00    -0.039 C 
ATOM     73  H35 non d ame      -5.849   6.254  64.479  0.00  0.00     0.036 H 
ATOM     74  H36 non d ame      -5.787   7.938  63.627  0.00  0.00     0.036 H 
BRANCH  72  75
ATOM     75  C25 non d ame      -6.329   7.971  65.746  0.00  0.00    -0.001 C 
ATOM     76  C26 non d ame      -5.590   9.437  65.662  0.00  0.00    -0.035 C 
ATOM     77  C27 non d ame      -4.685   9.528  66.665  0.00  0.00     0.085 C 
ATOM     78  H38 non d ame      -4.979   9.496  64.761  0.00  0.00     0.036 H 
ATOM     79  H39 non d ame      -6.303  10.230  65.889  0.00  0.00     0.036 H 
ATOM     80  N5  non d ame      -4.507   8.138  67.226  0.00  0.00    -0.049 N 
ATOM     81  H40 non d ame      -3.754   9.842  66.191  0.00  0.00     0.075 H 
ATOM     82  H41 non d ame      -5.152  10.158  67.422  0.00  0.00     0.075 H 
ATOM     83  C28 non d ame      -5.739   7.266  66.652  0.00  0.00     0.193 C 
ATOM     84  H42 non d ame      -3.648   7.779  66.833  0.00  0.00     0.280 HD
ATOM     85  H43 non d ame      -4.608   8.218  68.228  0.00  0.00     0.280 HD
ATOM     86  H44 non d ame      -6.585   7.016  67.293  0.00  0.00     0.129 H 
ATOM     87  H37 non d ame      -7.328   7.944  66.181  0.00  0.00     0.046 H 
BRANCH  83  88
ATOM     88  O6  non d ame      -5.264   6.019  66.142  0.00  0.00    -0.369 OA
ATOM     89  H45 non d ame      -5.859   5.316  66.411  0.00  0.00     0.212 HD
ENDBRANCH  83  88
ENDBRANCH  72  75
ENDBRANCH  47  72
ENDBRANCH  45  47
ENDBRANCH   1  43
BRANCH   1  90
ATOM     90  C16 non d ame      -9.987  11.492  63.210  0.00  0.00    -0.035 C 
ATOM     91  H21 non d ame      -9.046  12.025  63.345  0.00  0.00     0.037 H 
ATOM     92  H22 non d ame     -10.246  11.083  62.235  0.00  0.00     0.037 H 
BRANCH  90  93
ATOM     93  C17 non d ame     -11.121  12.499  63.583  0.00  0.00    -0.059 C 
ATOM     94  H23 non d ame     -11.310  13.122  62.708  0.00  0.00     0.038 H 
BRANCH  93  95
ATOM     95  C18 non d ame     -12.455  11.776  63.951  0.00  0.00    -0.073 C 
ATOM     96  H24 non d ame     -12.443  11.507  65.007  0.00  0.00     0.028 H 
ATOM     97  H25 non d ame     -13.295  12.443  63.757  0.00  0.00     0.028 H 
ATOM     98  H26 non d ame     -12.560  10.876  63.347  0.00  0.00     0.028 H 
ENDBRANCH  93  95
BRANCH  93  99
ATOM     99  C19 non d ame     -10.675  13.430  64.714  0.00  0.00    -0.073 C 
ATOM    100  H27 non d ame     -11.416  14.217  64.849  0.00  0.00     0.028 H 
ATOM    101  H28 non d ame     -10.578  12.859  65.637  0.00  0.00     0.028 H 
ATOM    102  H29 non d ame      -9.714  13.875  64.459  0.00  0.00     0.028 H 
ENDBRANCH  93  99
ENDBRANCH  90  93
ENDBRANCH   1  90
TORSDOF 26
ENDMDL
MODEL 15
REMARK VINA RESULT:      -5.8      3.628      8.047
REMARK  26 active torsions:
REMARK  status: ('A' for Active; 'I' for Inactive)
REMARK    1  A    between atoms: C2_2  and  C3_3 
REMARK    2  A    between atoms: C4_6  and  C5_7 
REMARK       I    between atoms: C5_7  and  N2_9 
REMARK    3  A    between atoms: N2_9  and  C6_10 
REMARK    4  A    between atoms: C6_10  and  C7_11 
REMARK    5  A    between atoms: C6_10  and  C8_13 
REMARK       I    between atoms: C7_11  and  N3_14 
REMARK    6  A    between atoms: N3_14  and  C9_15 
REMARK    7  A    between atoms: C9_15  and  C10_16 
REMARK    8  A    between atoms: C9_15  and  C11_18 
REMARK       I    between atoms: C10_16  and  N4_21 
REMARK    9  A    between atoms: C11_18  and  C12_19 
REMARK   10  A    between atoms: C11_18  and  C13_20 
REMARK   11  A    between atoms: N4_21  and  C14_22 
REMARK   12  A    between atoms: C14_22  and  C15_23 
REMARK   13  A    between atoms: C14_22  and  C16_25 
REMARK       I    between atoms: C15_23  and  N6_40 
REMARK   14  A    between atoms: C16_25  and  C17_26 
REMARK   15  A    between atoms: C17_26  and  C18_27 
REMARK   16  A    between atoms: C17_26  and  C19_28 
REMARK   17  A    between atoms: C20_29  and  C21_30 
REMARK   18  A    between atoms: C20_29  and  C24_33 
REMARK   19  A    between atoms: C20_29  and  N6_40 
REMARK   20  A    between atoms: C21_30  and  C22_31 
REMARK   21  A    between atoms: C22_31  and  C23_32 
REMARK   22  A    between atoms: C23_32  and  O8_43 
REMARK   23  A    between atoms: C24_33  and  C25_34 
REMARK   24  A    between atoms: C28_38  and  O6_39 
REMARK   25  A    between atoms: C29_42  and  O8_43 
REMARK   26  A    between atoms: C29_42  and  C35_49 
ROOT
ATOM      1  C14 non d ame      -9.335  10.355  68.702  0.00  0.00     0.089 C 
ATOM      2  H20 non d ame      -8.802  11.277  68.934  0.00  0.00     0.087 H 
ENDROOT
BRANCH   1   3
ATOM      3  N4  non d ame      -8.774   9.821  67.470  0.00  0.00    -0.346 N 
ATOM      4  C10 non d ame      -7.332  10.085  67.113  0.00  0.00     0.241 C 
ATOM      5  O4  non d ame      -6.645  10.732  67.832  0.00  0.00    -0.271 OA
ATOM      6  H19 non d ame      -9.377   9.275  66.870  0.00  0.00     0.163 HD
BRANCH   4   7
ATOM      7  C9  non d ame      -6.766   9.520  65.837  0.00  0.00     0.092 C 
ATOM      8  H11 non d ame      -7.108   8.492  65.717  0.00  0.00     0.088 H 
BRANCH   7   9
ATOM      9  N3  non d ame      -7.279  10.282  64.695  0.00  0.00    -0.346 N 
ATOM     10  C7  non d ame      -8.446   9.819  63.984  0.00  0.00     0.240 C 
ATOM     11  O3  non d ame      -8.983   8.833  64.317  0.00  0.00    -0.271 OA
ATOM     12  H10 non d ame      -6.825  11.132  64.395  0.00  0.00     0.163 HD
BRANCH  10  13
ATOM     13  C6  non d ame      -8.984  10.633  62.767  0.00  0.00     0.086 C 
ATOM     14  H6  non d ame      -9.904  10.217  62.355  0.00  0.00     0.086 H 
BRANCH  13  15
ATOM     15  N2  non d ame      -9.298  11.983  63.205  0.00  0.00    -0.343 N 
ATOM     16  C5  non d ame     -10.590  12.253  63.839  0.00  0.00     0.273 C 
ATOM     17  O2  non d ame     -11.371  11.379  63.990  0.00  0.00    -0.266 OA
ATOM     18  H5  non d ame      -8.626  12.724  63.070  0.00  0.00     0.163 HD
BRANCH  16  19
ATOM     19  C4  non d ame     -10.934  13.675  64.309  0.00  0.00     0.154 A 
ATOM     20  C1  non d ame     -10.110  14.554  65.082  0.00  0.00    -0.017 A 
ATOM     21  C2  non d ame     -10.880  15.727  65.244  0.00  0.00     0.077 A 
ATOM     22  H1  non d ame      -9.106  14.368  65.466  0.00  0.00     0.091 H 
ATOM     23  O1  non d ame     -12.012  15.535  64.630  0.00  0.00    -0.218 OA
ATOM     24  N1  non d ame     -12.067  14.345  64.078  0.00  0.00    -0.123 NA
BRANCH  21  25
ATOM     25  C3  non d ame     -10.461  16.983  65.994  0.00  0.00    -0.029 C 
ATOM     26  H2  non d ame      -9.441  17.250  65.717  0.00  0.00     0.036 H 
ATOM     27  H3  non d ame     -11.133  17.802  65.735  0.00  0.00     0.036 H 
ATOM     28  H4  non d ame     -10.510  16.800  67.068  0.00  0.00     0.036 H 
ENDBRANCH  21  25
ENDBRANCH  16  19
ENDBRANCH  13  15
BRANCH  13  29
ATOM     29  C8  non d ame      -7.939  10.672  61.682  0.00  0.00    -0.049 C 
ATOM     30  H7  non d ame      -7.366  11.596  61.762  0.00  0.00     0.030 H 
ATOM     31  H8  non d ame      -7.269   9.818  61.792  0.00  0.00     0.030 H 
ATOM     32  H9  non d ame      -8.424  10.630  60.708  0.00  0.00     0.030 H 
ENDBRANCH  13  29
ENDBRANCH  10  13
ENDBRANCH   7   9
BRANCH   7  33
ATOM     33  C11 non d ame      -5.213   9.620  65.869  0.00  0.00    -0.033 C 
ATOM     34  H12 non d ame      -4.951  10.456  66.519  0.00  0.00     0.042 H 
BRANCH  33  35
ATOM     35  C12 non d ame      -4.572   8.334  66.478  0.00  0.00    -0.071 C 
ATOM     36  H13 non d ame      -4.135   8.570  67.448  0.00  0.00     0.028 H 
ATOM     37  H14 non d ame      -5.339   7.570  66.602  0.00  0.00     0.028 H 
ATOM     38  H15 non d ame      -3.796   7.964  65.809  0.00  0.00     0.028 H 
ENDBRANCH  33  35
BRANCH  33  39
ATOM     39  C13 non d ame      -4.643   9.918  64.445  0.00  0.00    -0.071 C 
ATOM     40  H16 non d ame      -4.785   9.046  63.808  0.00  0.00     0.028 H 
ATOM     41  H17 non d ame      -5.165  10.773  64.016  0.00  0.00     0.028 H 
ATOM     42  H18 non d ame      -3.579  10.143  64.521  0.00  0.00     0.028 H 
ENDBRANCH  33  39
ENDBRANCH   7  33
ENDBRANCH   4   7
ENDBRANCH   1   3
BRANCH   1  43
ATOM     43  C15 non d ame      -9.178   9.287  69.822  0.00  0.00     0.240 C 
ATOM     44  O5  non d ame      -8.478   9.509  70.757  0.00  0.00    -0.271 OA
ATOM     45  N6  non d ame      -9.907   7.990  69.734  0.00  0.00    -0.355 N 
ATOM     46  H46 non d ame     -10.508   7.791  68.947  0.00  0.00     0.162 HD
BRANCH  45  47
ATOM     47  C20 non d ame      -9.748   6.985  70.807  0.00  0.00     0.013 C 
ATOM     48  H30 non d ame      -8.744   7.091  71.219  0.00  0.00     0.072 H 
BRANCH  47  49
ATOM     49  C21 non d ame      -9.925   5.600  70.227  0.00  0.00    -0.038 C 
ATOM     50  H31 non d ame      -8.919   5.243  70.004  0.00  0.00     0.036 H 
ATOM     51  H32 non d ame     -10.550   5.061  70.939  0.00  0.00     0.036 H 
BRANCH  49  52
ATOM     52  C22 non d ame     -10.694   5.605  68.888  0.00  0.00     0.018 C 
ATOM     53  H33 non d ame     -11.468   4.844  68.989  0.00  0.00     0.048 H 
ATOM     54  H34 non d ame     -10.971   6.644  68.711  0.00  0.00     0.048 H 
BRANCH  52  55
ATOM     55  C23 non d ame      -9.830   5.177  67.669  0.00  0.00     0.259 C 
ATOM     56  O7  non d ame     -10.106   4.202  67.048  0.00  0.00    -0.265 OA
BRANCH  55  57
ATOM     57  O8  non d ame      -8.696   5.956  67.310  0.00  0.00    -0.317 OA
BRANCH  57  58
ATOM     58  C29 non d ame      -8.569   6.188  65.904  0.00  0.00     0.052 C 
ATOM     59  H47 non d ame      -9.280   5.514  65.428  0.00  0.00     0.082 H 
ATOM     60  H48 non d ame      -8.668   7.266  65.773  0.00  0.00     0.082 H 
BRANCH  58  61
ATOM     61  C35 non d ame      -7.136   5.771  65.477  0.00  0.00    -0.034 A 
ATOM     62  C30 non d ame      -6.343   5.021  66.340  0.00  0.00    -0.075 A 
ATOM     63  C31 non d ame      -5.056   4.647  65.957  0.00  0.00    -0.082 A 
ATOM     64  H49 non d ame      -6.730   4.727  67.315  0.00  0.00     0.084 H 
ATOM     65  C32 non d ame      -4.562   5.027  64.707  0.00  0.00    -0.083 A 
ATOM     66  H50 non d ame      -4.438   4.058  66.634  0.00  0.00     0.083 H 
ATOM     67  C33 non d ame      -5.355   5.779  63.850  0.00  0.00    -0.082 A 
ATOM     68  H51 non d ame      -3.557   4.739  64.399  0.00  0.00     0.083 H 
ATOM     69  C34 non d ame      -6.643   6.153  64.228  0.00  0.00    -0.075 A 
ATOM     70  H52 non d ame      -4.966   6.076  62.876  0.00  0.00     0.083 H 
ATOM     71  H53 non d ame      -7.261   6.742  63.549  0.00  0.00     0.084 H 
ENDBRANCH  58  61
ENDBRANCH  57  58
ENDBRANCH  55  57
ENDBRANCH  52  55
ENDBRANCH  49  52
ENDBRANCH  47  49
BRANCH  47  72
ATOM     72  C24 non d ame     -10.795   7.220  71.894  0.00  0.00    -0.039 C 
ATOM     73  H35 non d ame     -10.941   6.252  72.371  0.00  0.00     0.036 H 
ATOM     74  H36 non d ame     -10.425   8.064  72.476  0.00  0.00     0.036 H 
BRANCH  72  75
ATOM     75  C25 non d ame     -12.205   7.658  71.272  0.00  0.00    -0.001 C 
ATOM     76  C26 non d ame     -12.532   9.221  71.667  0.00  0.00    -0.035 C 
ATOM     77  C27 non d ame     -13.772   9.285  72.205  0.00  0.00     0.085 C 
ATOM     78  H38 non d ame     -11.883   9.543  72.482  0.00  0.00     0.036 H 
ATOM     79  H39 non d ame     -12.613   9.825  70.763  0.00  0.00     0.036 H 
ATOM     80  N5  non d ame     -14.194   7.869  72.514  0.00  0.00    -0.049 N 
ATOM     81  H40 non d ame     -13.657   9.834  73.140  0.00  0.00     0.075 H 
ATOM     82  H41 non d ame     -14.412   9.681  71.416  0.00  0.00     0.075 H 
ATOM     83  C28 non d ame     -13.163   6.915  71.718  0.00  0.00     0.193 C 
ATOM     84  H42 non d ame     -14.053   7.739  73.506  0.00  0.00     0.280 HD
ATOM     85  H43 non d ame     -15.114   7.751  72.116  0.00  0.00     0.280 HD
ATOM     86  H44 non d ame     -13.469   6.413  70.800  0.00  0.00     0.129 H 
ATOM     87  H37 non d ame     -12.297   7.382  70.222  0.00  0.00     0.046 H 
BRANCH  83  88
ATOM     88  O6  non d ame     -12.686   5.880  72.579  0.00  0.00    -0.369 OA
ATOM     89  H45 non d ame     -12.124   5.283  72.081  0.00  0.00     0.212 HD
ENDBRANCH  83  88
ENDBRANCH  72  75
ENDBRANCH  47  72
ENDBRANCH  45  47
ENDBRANCH   1  43
BRANCH   1  90
ATOM     90  C16 non d ame     -10.811  10.656  68.486  0.00  0.00    -0.035 C 
ATOM     91  H21 non d ame     -10.988  10.481  67.425  0.00  0.00     0.037 H 
ATOM     92  H22 non d ame     -11.338  10.062  69.231  0.00  0.00     0.037 H 
BRANCH  90  93
ATOM     93  C17 non d ame     -11.192  12.145  68.756  0.00  0.00    -0.059 C 
ATOM     94  H23 non d ame     -10.266  12.707  68.880  0.00  0.00     0.038 H 
BRANCH  93  95
ATOM     95  C18 non d ame     -11.978  12.779  67.565  0.00  0.00    -0.073 C 
ATOM     96  H24 non d ame     -12.833  12.149  67.317  0.00  0.00     0.028 H 
ATOM     97  H25 non d ame     -12.331  13.771  67.849  0.00  0.00     0.028 H 
ATOM     98  H26 non d ame     -11.322  12.861  66.699  0.00  0.00     0.028 H 
ENDBRANCH  93  95
BRANCH  93  99
ATOM     99  C19 non d ame     -11.981  12.279  70.062  0.00  0.00    -0.073 C 
ATOM    100  H27 non d ame     -12.932  12.772  69.863  0.00  0.00     0.028 H 
ATOM    101  H28 non d ame     -12.165  11.288  70.478  0.00  0.00     0.028 H 
ATOM    102  H29 non d ame     -11.407  12.871  70.774  0.00  0.00     0.028 H 
ENDBRANCH  93  99
ENDBRANCH  90  93
ENDBRANCH   1  90
TORSDOF 26
ENDMDL
MODEL 16
REMARK VINA RESULT:      -5.8      2.291      7.750
REMARK  26 active torsions:
REMARK  status: ('A' for Active; 'I' for Inactive)
REMARK    1  A    between atoms: C2_2  and  C3_3 
REMARK    2  A    between atoms: C4_6  and  C5_7 
REMARK       I    between atoms: C5_7  and  N2_9 
REMARK    3  A    between atoms: N2_9  and  C6_10 
REMARK    4  A    between atoms: C6_10  and  C7_11 
REMARK    5  A    between atoms: C6_10  and  C8_13 
REMARK       I    between atoms: C7_11  and  N3_14 
REMARK    6  A    between atoms: N3_14  and  C9_15 
REMARK    7  A    between atoms: C9_15  and  C10_16 
REMARK    8  A    between atoms: C9_15  and  C11_18 
REMARK       I    between atoms: C10_16  and  N4_21 
REMARK    9  A    between atoms: C11_18  and  C12_19 
REMARK   10  A    between atoms: C11_18  and  C13_20 
REMARK   11  A    between atoms: N4_21  and  C14_22 
REMARK   12  A    between atoms: C14_22  and  C15_23 
REMARK   13  A    between atoms: C14_22  and  C16_25 
REMARK       I    between atoms: C15_23  and  N6_40 
REMARK   14  A    between atoms: C16_25  and  C17_26 
REMARK   15  A    between atoms: C17_26  and  C18_27 
REMARK   16  A    between atoms: C17_26  and  C19_28 
REMARK   17  A    between atoms: C20_29  and  C21_30 
REMARK   18  A    between atoms: C20_29  and  C24_33 
REMARK   19  A    between atoms: C20_29  and  N6_40 
REMARK   20  A    between atoms: C21_30  and  C22_31 
REMARK   21  A    between atoms: C22_31  and  C23_32 
REMARK   22  A    between atoms: C23_32  and  O8_43 
REMARK   23  A    between atoms: C24_33  and  C25_34 
REMARK   24  A    between atoms: C28_38  and  O6_39 
REMARK   25  A    between atoms: C29_42  and  O8_43 
REMARK   26  A    between atoms: C29_42  and  C35_49 
ROOT
ATOM      1  C14 non d ame      -6.748  13.376  68.224  0.00  0.00     0.089 C 
ATOM      2  H20 non d ame      -5.951  13.331  67.481  0.00  0.00     0.087 H 
ENDROOT
BRANCH   1   3
ATOM      3  N4  non d ame      -6.920  14.772  68.598  0.00  0.00    -0.346 N 
ATOM      4  C10 non d ame      -6.187  15.857  67.850  0.00  0.00     0.241 C 
ATOM      5  O4  non d ame      -5.462  15.582  66.952  0.00  0.00    -0.271 OA
ATOM      6  H19 non d ame      -7.541  14.984  69.367  0.00  0.00     0.163 HD
BRANCH   4   7
ATOM      7  C9  non d ame      -6.382  17.297  68.247  0.00  0.00     0.092 C 
ATOM      8  H11 non d ame      -5.970  17.941  67.470  0.00  0.00     0.088 H 
BRANCH   7   9
ATOM      9  N3  non d ame      -7.816  17.590  68.336  0.00  0.00    -0.346 N 
ATOM     10  C7  non d ame      -8.583  17.810  67.136  0.00  0.00     0.240 C 
ATOM     11  O3  non d ame      -8.063  17.758  66.088  0.00  0.00    -0.271 OA
ATOM     12  H10 non d ame      -8.278  17.640  69.233  0.00  0.00     0.163 HD
BRANCH  10  13
ATOM     13  C6  non d ame     -10.108  18.125  67.238  0.00  0.00     0.086 C 
ATOM     14  H6  non d ame     -10.692  17.646  66.453  0.00  0.00     0.086 H 
BRANCH  13  15
ATOM     15  N2  non d ame     -10.611  17.612  68.502  0.00  0.00    -0.343 N 
ATOM     16  C5  non d ame     -11.199  16.272  68.553  0.00  0.00     0.273 C 
ATOM     17  O2  non d ame     -11.265  15.616  67.572  0.00  0.00    -0.266 OA
ATOM     18  H5  non d ame     -10.552  18.180  69.335  0.00  0.00     0.163 HD
BRANCH  16  19
ATOM     19  C4  non d ame     -11.733  15.716  69.883  0.00  0.00     0.154 A 
ATOM     20  C1  non d ame     -12.471  14.505  70.079  0.00  0.00    -0.017 A 
ATOM     21  C2  non d ame     -12.720  14.453  71.469  0.00  0.00     0.077 A 
ATOM     22  H1  non d ame     -12.779  13.777  69.329  0.00  0.00     0.091 H 
ATOM     23  O1  non d ame     -12.182  15.512  71.999  0.00  0.00    -0.218 OA
ATOM     24  N1  non d ame     -11.601  16.265  71.093  0.00  0.00    -0.123 NA
BRANCH  21  25
ATOM     25  C3  non d ame     -13.475  13.357  72.208  0.00  0.00    -0.029 C 
ATOM     26  H2  non d ame     -13.007  13.182  73.178  0.00  0.00     0.036 H 
ATOM     27  H3  non d ame     -14.510  13.666  72.356  0.00  0.00     0.036 H 
ATOM     28  H4  non d ame     -13.451  12.438  71.622  0.00  0.00     0.036 H 
ENDBRANCH  21  25
ENDBRANCH  16  19
ENDBRANCH  13  15
BRANCH  13  29
ATOM     29  C8  non d ame     -10.323  19.615  67.165  0.00  0.00    -0.049 C 
ATOM     30  H7  non d ame     -10.075  19.970  66.164  0.00  0.00     0.030 H 
ATOM     31  H8  non d ame     -11.367  19.843  67.382  0.00  0.00     0.030 H 
ATOM     32  H9  non d ame      -9.683  20.111  67.893  0.00  0.00     0.030 H 
ENDBRANCH  13  29
ENDBRANCH  10  13
ENDBRANCH   7   9
BRANCH   7  33
ATOM     33  C11 non d ame      -5.716  17.548  69.631  0.00  0.00    -0.033 C 
ATOM     34  H12 non d ame      -6.320  17.041  70.383  0.00  0.00     0.042 H 
BRANCH  33  35
ATOM     35  C12 non d ame      -4.282  16.937  69.691  0.00  0.00    -0.071 C 
ATOM     36  H13 non d ame      -3.676  17.501  70.400  0.00  0.00     0.028 H 
ATOM     37  H14 non d ame      -4.343  15.897  70.013  0.00  0.00     0.028 H 
ATOM     38  H15 non d ame      -3.825  16.984  68.703  0.00  0.00     0.028 H 
ENDBRANCH  33  35
BRANCH  33  39
ATOM     39  C13 non d ame      -5.697  19.073  69.973  0.00  0.00    -0.071 C 
ATOM     40  H16 non d ame      -5.400  19.208  71.013  0.00  0.00     0.028 H 
ATOM     41  H17 non d ame      -4.986  19.583  69.322  0.00  0.00     0.028 H 
ATOM     42  H18 non d ame      -6.692  19.490  69.822  0.00  0.00     0.028 H 
ENDBRANCH  33  39
ENDBRANCH   7  33
ENDBRANCH   4   7
ENDBRANCH   1   3
BRANCH   1  43
ATOM     43  C15 non d ame      -8.099  12.841  67.669  0.00  0.00     0.240 C 
ATOM     44  O5  non d ame      -9.006  13.591  67.498  0.00  0.00    -0.271 OA
ATOM     45  N6  non d ame      -8.261  11.396  67.343  0.00  0.00    -0.355 N 
ATOM     46  H46 non d ame      -7.497  10.750  67.481  0.00  0.00     0.162 HD
BRANCH  45  47
ATOM     47  C20 non d ame      -9.552  10.903  66.816  0.00  0.00     0.013 C 
ATOM     48  H30 non d ame     -10.319  11.634  67.072  0.00  0.00     0.072 H 
BRANCH  47  49
ATOM     49  C21 non d ame      -9.876   9.570  67.452  0.00  0.00    -0.038 C 
ATOM     50  H31 non d ame     -10.765   9.742  68.059  0.00  0.00     0.036 H 
ATOM     51  H32 non d ame      -9.906   8.853  66.631  0.00  0.00     0.036 H 
BRANCH  49  52
ATOM     52  C22 non d ame      -8.774   9.082  68.417  0.00  0.00     0.018 C 
ATOM     53  H33 non d ame      -7.858   9.048  67.826  0.00  0.00     0.048 H 
ATOM     54  H34 non d ame      -8.836   9.733  69.289  0.00  0.00     0.048 H 
BRANCH  52  55
ATOM     55  C23 non d ame      -8.998   7.637  68.942  0.00  0.00     0.259 C 
ATOM     56  O7  non d ame      -9.041   6.721  68.186  0.00  0.00    -0.265 OA
BRANCH  55  57
ATOM     57  O8  non d ame      -9.164   7.419  70.337  0.00  0.00    -0.317 OA
BRANCH  57  58
ATOM     58  C29 non d ame      -9.484   8.601  71.077  0.00  0.00     0.052 C 
ATOM     59  H47 non d ame      -9.025   8.470  72.057  0.00  0.00     0.082 H 
ATOM     60  H48 non d ame      -9.184   9.436  70.443  0.00  0.00     0.082 H 
BRANCH  58  61
ATOM     61  C35 non d ame     -11.024   8.652  71.259  0.00  0.00    -0.034 A 
ATOM     62  C30 non d ame     -11.725   7.496  71.585  0.00  0.00    -0.075 A 
ATOM     63  C31 non d ame     -13.108   7.540  71.748  0.00  0.00    -0.082 A 
ATOM     64  H49 non d ame     -11.190   6.555  71.714  0.00  0.00     0.084 H 
ATOM     65  C32 non d ame     -13.792   8.748  71.581  0.00  0.00    -0.083 A 
ATOM     66  H50 non d ame     -13.654   6.633  72.005  0.00  0.00     0.083 H 
ATOM     67  C33 non d ame     -13.089   9.899  71.251  0.00  0.00    -0.082 A 
ATOM     68  H51 non d ame     -14.874   8.792  71.706  0.00  0.00     0.083 H 
ATOM     69  C34 non d ame     -11.705   9.858  71.090  0.00  0.00    -0.075 A 
ATOM     70  H52 non d ame     -13.625  10.839  71.119  0.00  0.00     0.083 H 
ATOM     71  H53 non d ame     -11.160  10.768  70.833  0.00  0.00     0.084 H 
ENDBRANCH  58  61
ENDBRANCH  57  58
ENDBRANCH  55  57
ENDBRANCH  52  55
ENDBRANCH  49  52
ENDBRANCH  47  49
BRANCH  47  72
ATOM     72  C24 non d ame      -9.460  10.737  65.301  0.00  0.00    -0.039 C 
ATOM     73  H35 non d ame      -8.396  10.763  65.069  0.00  0.00     0.036 H 
ATOM     74  H36 non d ame     -10.046   9.847  65.070  0.00  0.00     0.036 H 
BRANCH  72  75
ATOM     75  C25 non d ame     -10.142  11.964  64.528  0.00  0.00    -0.001 C 
ATOM     76  C26 non d ame     -11.492  12.451  65.330  0.00  0.00    -0.035 C 
ATOM     77  C27 non d ame     -12.525  12.504  64.455  0.00  0.00     0.085 C 
ATOM     78  H38 non d ame     -11.800  11.686  66.042  0.00  0.00     0.036 H 
ATOM     79  H39 non d ame     -11.381  13.486  65.656  0.00  0.00     0.036 H 
ATOM     80  N5  non d ame     -12.080  11.786  63.204  0.00  0.00    -0.049 N 
ATOM     81  H40 non d ame     -13.332  11.939  64.922  0.00  0.00     0.075 H 
ATOM     82  H41 non d ame     -12.660  13.561  64.228  0.00  0.00     0.075 H 
ATOM     83  C28 non d ame     -10.478  11.630  63.326  0.00  0.00     0.193 C 
ATOM     84  H42 non d ame     -12.496  10.866  63.239  0.00  0.00     0.280 HD
ATOM     85  H43 non d ame     -12.285  12.403  62.431  0.00  0.00     0.280 HD
ATOM     86  H44 non d ame      -9.813  12.273  62.748  0.00  0.00     0.129 H 
ATOM     87  H37 non d ame      -9.420  12.734  64.259  0.00  0.00     0.046 H 
BRANCH  83  88
ATOM     88  O6  non d ame     -10.088  10.293  63.008  0.00  0.00    -0.369 OA
ATOM     89  H45 non d ame      -9.225  10.113  63.389  0.00  0.00     0.212 HD
ENDBRANCH  83  88
ENDBRANCH  72  75
ENDBRANCH  47  72
ENDBRANCH  45  47
ENDBRANCH   1  43
BRANCH   1  90
ATOM     90  C16 non d ame      -6.349  12.577  69.455  0.00  0.00    -0.035 C 
ATOM     91  H21 non d ame      -6.183  13.318  70.238  0.00  0.00     0.037 H 
ATOM     92  H22 non d ame      -7.126  11.824  69.574  0.00  0.00     0.037 H 
BRANCH  90  93
ATOM     93  C17 non d ame      -5.003  11.803  69.291  0.00  0.00    -0.059 C 
ATOM     94  H23 non d ame      -4.430  11.936  70.208  0.00  0.00     0.038 H 
BRANCH  93  95
ATOM     95  C18 non d ame      -5.224  10.271  69.085  0.00  0.00    -0.073 C 
ATOM     96  H24 non d ame      -6.196  10.104  68.620  0.00  0.00     0.028 H 
ATOM     97  H25 non d ame      -4.441   9.874  68.440  0.00  0.00     0.028 H 
ATOM     98  H26 non d ame      -5.191   9.766  70.050  0.00  0.00     0.028 H 
ENDBRANCH  93  95
BRANCH  93  99
ATOM     99  C19 non d ame      -4.171  12.391  68.148  0.00  0.00    -0.073 C 
ATOM    100  H27 non d ame      -4.829  12.666  67.323  0.00  0.00     0.028 H 
ATOM    101  H28 non d ame      -3.642  13.277  68.501  0.00  0.00     0.028 H 
ATOM    102  H29 non d ame      -3.449  11.650  67.805  0.00  0.00     0.028 H 
ENDBRANCH  93  99
ENDBRANCH  90  93
ENDBRANCH   1  90
TORSDOF 26
ENDMDL
MODEL 17
REMARK VINA RESULT:      -5.7      3.546      7.623
REMARK  26 active torsions:
REMARK  status: ('A' for Active; 'I' for Inactive)
REMARK    1  A    between atoms: C2_2  and  C3_3 
REMARK    2  A    between atoms: C4_6  and  C5_7 
REMARK       I    between atoms: C5_7  and  N2_9 
REMARK    3  A    between atoms: N2_9  and  C6_10 
REMARK    4  A    between atoms: C6_10  and  C7_11 
REMARK    5  A    between atoms: C6_10  and  C8_13 
REMARK       I    between atoms: C7_11  and  N3_14 
REMARK    6  A    between atoms: N3_14  and  C9_15 
REMARK    7  A    between atoms: C9_15  and  C10_16 
REMARK    8  A    between atoms: C9_15  and  C11_18 
REMARK       I    between atoms: C10_16  and  N4_21 
REMARK    9  A    between atoms: C11_18  and  C12_19 
REMARK   10  A    between atoms: C11_18  and  C13_20 
REMARK   11  A    between atoms: N4_21  and  C14_22 
REMARK   12  A    between atoms: C14_22  and  C15_23 
REMARK   13  A    between atoms: C14_22  and  C16_25 
REMARK       I    between atoms: C15_23  and  N6_40 
REMARK   14  A    between atoms: C16_25  and  C17_26 
REMARK   15  A    between atoms: C17_26  and  C18_27 
REMARK   16  A    between atoms: C17_26  and  C19_28 
REMARK   17  A    between atoms: C20_29  and  C21_30 
REMARK   18  A    between atoms: C20_29  and  C24_33 
REMARK   19  A    between atoms: C20_29  and  N6_40 
REMARK   20  A    between atoms: C21_30  and  C22_31 
REMARK   21  A    between atoms: C22_31  and  C23_32 
REMARK   22  A    between atoms: C23_32  and  O8_43 
REMARK   23  A    between atoms: C24_33  and  C25_34 
REMARK   24  A    between atoms: C28_38  and  O6_39 
REMARK   25  A    between atoms: C29_42  and  O8_43 
REMARK   26  A    between atoms: C29_42  and  C35_49 
ROOT
ATOM      1  C14 non d ame     -10.094   8.778  69.253  0.00  0.00     0.089 C 
ATOM      2  H20 non d ame     -11.138   8.466  69.271  0.00  0.00     0.087 H 
ENDROOT
BRANCH   1   3
ATOM      3  N4  non d ame      -9.292   7.612  68.918  0.00  0.00    -0.346 N 
ATOM      4  C10 non d ame      -9.863   6.224  69.073  0.00  0.00     0.241 C 
ATOM      5  O4  non d ame     -10.971   6.073  69.472  0.00  0.00    -0.271 OA
ATOM      6  H19 non d ame      -8.350   7.762  68.583  0.00  0.00     0.163 HD
BRANCH   4   7
ATOM      7  C9  non d ame      -9.020   5.028  68.717  0.00  0.00     0.092 C 
ATOM      8  H11 non d ame      -9.636   4.301  68.188  0.00  0.00     0.088 H 
BRANCH   7   9
ATOM      9  N3  non d ame      -7.951   5.438  67.802  0.00  0.00    -0.346 N 
ATOM     10  C7  non d ame      -7.583   4.589  66.696  0.00  0.00     0.240 C 
ATOM     11  O3  non d ame      -8.136   3.570  66.529  0.00  0.00    -0.271 OA
ATOM     12  H10 non d ame      -7.464   6.312  67.934  0.00  0.00     0.163 HD
BRANCH  10  13
ATOM     13  C6  non d ame      -6.443   5.029  65.727  0.00  0.00     0.086 C 
ATOM     14  H6  non d ame      -6.293   4.329  64.905  0.00  0.00     0.086 H 
BRANCH  13  15
ATOM     15  N2  non d ame      -6.800   6.304  65.128  0.00  0.00    -0.343 N 
ATOM     16  C5  non d ame      -7.066   6.375  63.689  0.00  0.00     0.273 C 
ATOM     17  O2  non d ame      -6.987   5.401  63.023  0.00  0.00    -0.266 OA
ATOM     18  H5  non d ame      -6.863   7.131  65.703  0.00  0.00     0.163 HD
BRANCH  16  19
ATOM     19  C4  non d ame      -7.447   7.715  63.041  0.00  0.00     0.154 A 
ATOM     20  C1  non d ame      -6.597   8.848  62.834  0.00  0.00    -0.017 A 
ATOM     21  C2  non d ame      -7.420   9.812  62.210  0.00  0.00     0.077 A 
ATOM     22  H1  non d ame      -5.544   8.955  63.097  0.00  0.00     0.091 H 
ATOM     23  O1  non d ame      -8.602   9.283  62.077  0.00  0.00    -0.218 OA
ATOM     24  N1  non d ame      -8.642   8.061  62.556  0.00  0.00    -0.123 NA
BRANCH  21  25
ATOM     25  C3  non d ame      -7.000  11.208  61.772  0.00  0.00    -0.029 C 
ATOM     26  H2  non d ame      -7.850  11.887  61.855  0.00  0.00     0.036 H 
ATOM     27  H3  non d ame      -6.190  11.560  62.410  0.00  0.00     0.036 H 
ATOM     28  H4  non d ame      -6.660  11.178  60.736  0.00  0.00     0.036 H 
ENDBRANCH  21  25
ENDBRANCH  16  19
ENDBRANCH  13  15
BRANCH  13  29
ATOM     29  C8  non d ame      -5.152   5.164  66.494  0.00  0.00    -0.049 C 
ATOM     30  H7  non d ame      -5.326   5.741  67.402  0.00  0.00     0.030 H 
ATOM     31  H8  non d ame      -4.782   4.172  66.759  0.00  0.00     0.030 H 
ATOM     32  H9  non d ame      -4.414   5.674  65.877  0.00  0.00     0.030 H 
ENDBRANCH  13  29
ENDBRANCH  10  13
ENDBRANCH   7   9
BRANCH   7  33
ATOM     33  C11 non d ame      -8.392   4.432  70.011  0.00  0.00    -0.033 C 
ATOM     34  H12 non d ame      -7.439   3.979  69.735  0.00  0.00     0.042 H 
BRANCH  33  35
ATOM     35  C12 non d ame      -8.096   5.544  71.064  0.00  0.00    -0.071 C 
ATOM     36  H13 non d ame      -8.577   6.473  70.757  0.00  0.00     0.028 H 
ATOM     37  H14 non d ame      -8.484   5.238  72.035  0.00  0.00     0.028 H 
ATOM     38  H15 non d ame      -7.019   5.698  71.135  0.00  0.00     0.028 H 
ENDBRANCH  33  35
BRANCH  33  39
ATOM     39  C13 non d ame      -9.303   3.313  70.610  0.00  0.00    -0.071 C 
ATOM     40  H16 non d ame      -9.504   2.561  69.848  0.00  0.00     0.028 H 
ATOM     41  H17 non d ame      -8.799   2.847  71.457  0.00  0.00     0.028 H 
ATOM     42  H18 non d ame     -10.244   3.751  70.943  0.00  0.00     0.028 H 
ENDBRANCH  33  39
ENDBRANCH   7  33
ENDBRANCH   4   7
ENDBRANCH   1   3
BRANCH   1  43
ATOM     43  C15 non d ame      -9.829   9.883  68.190  0.00  0.00     0.240 C 
ATOM     44  O5  non d ame      -9.167   9.636  67.233  0.00  0.00    -0.271 OA
ATOM     45  N6  non d ame     -10.408  11.246  68.360  0.00  0.00    -0.355 N 
ATOM     46  H46 non d ame     -10.975  11.467  69.166  0.00  0.00     0.162 HD
BRANCH  45  47
ATOM     47  C20 non d ame     -10.147  12.285  67.339  0.00  0.00     0.013 C 
ATOM     48  H30 non d ame      -9.603  11.819  66.518  0.00  0.00     0.072 H 
BRANCH  47  49
ATOM     49  C21 non d ame      -9.315  13.389  67.951  0.00  0.00    -0.038 C 
ATOM     50  H31 non d ame      -9.696  13.520  68.963  0.00  0.00     0.036 H 
ATOM     51  H32 non d ame      -8.276  13.096  67.792  0.00  0.00     0.036 H 
BRANCH  49  52
ATOM     52  C22 non d ame      -9.499  14.745  67.235  0.00  0.00     0.018 C 
ATOM     53  H33 non d ame      -8.542  14.959  66.758  0.00  0.00     0.048 H 
ATOM     54  H34 non d ame     -10.398  14.639  66.628  0.00  0.00     0.048 H 
BRANCH  52  55
ATOM     55  C23 non d ame      -9.770  15.931  68.202  0.00  0.00     0.259 C 
ATOM     56  O7  non d ame      -9.730  17.050  67.807  0.00  0.00    -0.265 OA
BRANCH  55  57
ATOM     57  O8  non d ame     -10.052  15.665  69.570  0.00  0.00    -0.317 OA
BRANCH  57  58
ATOM     58  C29 non d ame     -11.252  16.279  70.048  0.00  0.00     0.052 C 
ATOM     59  H47 non d ame     -10.931  17.042  70.757  0.00  0.00     0.082 H 
ATOM     60  H48 non d ame     -11.812  16.565  69.157  0.00  0.00     0.082 H 
BRANCH  58  61
ATOM     61  C35 non d ame     -12.067  15.206  70.817  0.00  0.00    -0.034 A 
ATOM     62  C30 non d ame     -12.002  13.872  70.429  0.00  0.00    -0.075 A 
ATOM     63  C31 non d ame     -12.733  12.907  71.120  0.00  0.00    -0.082 A 
ATOM     64  H49 non d ame     -11.378  13.582  69.584  0.00  0.00     0.084 H 
ATOM     65  C32 non d ame     -13.534  13.281  72.202  0.00  0.00    -0.083 A 
ATOM     66  H50 non d ame     -12.679  11.863  70.814  0.00  0.00     0.083 H 
ATOM     67  C33 non d ame     -13.599  14.615  72.584  0.00  0.00    -0.082 A 
ATOM     68  H51 non d ame     -14.110  12.534  72.748  0.00  0.00     0.083 H 
ATOM     69  C34 non d ame     -12.867  15.582  71.898  0.00  0.00    -0.075 A 
ATOM     70  H52 non d ame     -14.227  14.904  73.427  0.00  0.00     0.083 H 
ATOM     71  H53 non d ame     -12.922  16.627  72.205  0.00  0.00     0.084 H 
ENDBRANCH  58  61
ENDBRANCH  57  58
ENDBRANCH  55  57
ENDBRANCH  52  55
ENDBRANCH  49  52
ENDBRANCH  47  49
BRANCH  47  72
ATOM     72  C24 non d ame     -11.470  12.860  66.840  0.00  0.00    -0.039 C 
ATOM     73  H35 non d ame     -12.203  12.616  67.609  0.00  0.00     0.036 H 
ATOM     74  H36 non d ame     -11.262  13.903  66.599  0.00  0.00     0.036 H 
BRANCH  72  75
ATOM     75  C25 non d ame     -11.952  12.150  65.487  0.00  0.00    -0.001 C 
ATOM     76  C26 non d ame     -10.669  11.452  64.732  0.00  0.00    -0.035 C 
ATOM     77  C27 non d ame     -10.645  11.861  63.442  0.00  0.00     0.085 C 
ATOM     78  H38 non d ame      -9.737  11.843  65.141  0.00  0.00     0.036 H 
ATOM     79  H39 non d ame     -10.821  10.375  64.656  0.00  0.00     0.036 H 
ATOM     80  N5  non d ame     -11.598  13.026  63.330  0.00  0.00    -0.049 N 
ATOM     81  H40 non d ame      -9.629  12.215  63.267  0.00  0.00     0.075 H 
ATOM     82  H41 non d ame     -11.038  11.025  62.864  0.00  0.00     0.075 H 
ATOM     83  C28 non d ame     -12.488  13.003  64.677  0.00  0.00     0.193 C 
ATOM     84  H42 non d ame     -11.031  13.862  63.334  0.00  0.00     0.280 HD
ATOM     85  H43 non d ame     -12.201  12.829  62.544  0.00  0.00     0.280 HD
ATOM     86  H44 non d ame     -13.515  12.638  64.656  0.00  0.00     0.129 H 
ATOM     87  H37 non d ame     -12.836  11.531  65.637  0.00  0.00     0.046 H 
BRANCH  83  88
ATOM     88  O6  non d ame     -12.560  14.312  65.243  0.00  0.00    -0.369 OA
ATOM     89  H45 non d ame     -13.108  14.871  64.687  0.00  0.00     0.212 HD
ENDBRANCH  83  88
ENDBRANCH  72  75
ENDBRANCH  47  72
ENDBRANCH  45  47
ENDBRANCH   1  43
BRANCH   1  90
ATOM     90  C16 non d ame      -9.686   9.284  70.628  0.00  0.00    -0.035 C 
ATOM     91  H21 non d ame      -8.874   8.630  70.947  0.00  0.00     0.037 H 
ATOM     92  H22 non d ame      -9.507  10.351  70.502  0.00  0.00     0.037 H 
BRANCH  90  93
ATOM     93  C17 non d ame     -10.809   9.149  71.704  0.00  0.00    -0.059 C 
ATOM     94  H23 non d ame     -10.723   9.999  72.381  0.00  0.00     0.038 H 
BRANCH  93  95
ATOM     95  C18 non d ame     -12.237   9.183  71.074  0.00  0.00    -0.073 C 
ATOM     96  H24 non d ame     -12.156   9.159  69.987  0.00  0.00     0.028 H 
ATOM     97  H25 non d ame     -12.805   8.316  71.414  0.00  0.00     0.028 H 
ATOM     98  H26 non d ame     -12.749  10.094  71.382  0.00  0.00     0.028 H 
ENDBRANCH  93  95
BRANCH  93  99
ATOM     99  C19 non d ame     -10.613   7.882  72.542  0.00  0.00    -0.073 C 
ATOM    100  H27 non d ame     -10.486   7.025  71.880  0.00  0.00     0.028 H 
ATOM    101  H28 non d ame      -9.726   7.993  73.167  0.00  0.00     0.028 H 
ATOM    102  H29 non d ame     -11.486   7.726  73.175  0.00  0.00     0.028 H 
ENDBRANCH  93  99
ENDBRANCH  90  93
ENDBRANCH   1  90
TORSDOF 26
ENDMDL
MODEL 18
REMARK VINA RESULT:      -5.7      2.764      8.248
REMARK  26 active torsions:
REMARK  status: ('A' for Active; 'I' for Inactive)
REMARK    1  A    between atoms: C2_2  and  C3_3 
REMARK    2  A    between atoms: C4_6  and  C5_7 
REMARK       I    between atoms: C5_7  and  N2_9 
REMARK    3  A    between atoms: N2_9  and  C6_10 
REMARK    4  A    between atoms: C6_10  and  C7_11 
REMARK    5  A    between atoms: C6_10  and  C8_13 
REMARK       I    between atoms: C7_11  and  N3_14 
REMARK    6  A    between atoms: N3_14  and  C9_15 
REMARK    7  A    between atoms: C9_15  and  C10_16 
REMARK    8  A    between atoms: C9_15  and  C11_18 
REMARK       I    between atoms: C10_16  and  N4_21 
REMARK    9  A    between atoms: C11_18  and  C12_19 
REMARK   10  A    between atoms: C11_18  and  C13_20 
REMARK   11  A    between atoms: N4_21  and  C14_22 
REMARK   12  A    between atoms: C14_22  and  C15_23 
REMARK   13  A    between atoms: C14_22  and  C16_25 
REMARK       I    between atoms: C15_23  and  N6_40 
REMARK   14  A    between atoms: C16_25  and  C17_26 
REMARK   15  A    between atoms: C17_26  and  C18_27 
REMARK   16  A    between atoms: C17_26  and  C19_28 
REMARK   17  A    between atoms: C20_29  and  C21_30 
REMARK   18  A    between atoms: C20_29  and  C24_33 
REMARK   19  A    between atoms: C20_29  and  N6_40 
REMARK   20  A    between atoms: C21_30  and  C22_31 
REMARK   21  A    between atoms: C22_31  and  C23_32 
REMARK   22  A    between atoms: C23_32  and  O8_43 
REMARK   23  A    between atoms: C24_33  and  C25_34 
REMARK   24  A    between atoms: C28_38  and  O6_39 
REMARK   25  A    between atoms: C29_42  and  O8_43 
REMARK   26  A    between atoms: C29_42  and  C35_49 
ROOT
ATOM      1  C14 non d ame      -6.685  10.940  68.764  0.00  0.00     0.089 C 
ATOM      2  H20 non d ame      -5.675  11.339  68.675  0.00  0.00     0.087 H 
ENDROOT
BRANCH   1   3
ATOM      3  N4  non d ame      -7.602  12.069  68.786  0.00  0.00    -0.346 N 
ATOM      4  C10 non d ame      -7.305  13.309  67.980  0.00  0.00     0.241 C 
ATOM      5  O4  non d ame      -6.318  13.374  67.323  0.00  0.00    -0.271 OA
ATOM      6  H19 non d ame      -8.435  11.994  69.355  0.00  0.00     0.163 HD
BRANCH   4   7
ATOM      7  C9  non d ame      -8.267  14.466  68.011  0.00  0.00     0.092 C 
ATOM      8  H11 non d ame      -8.659  14.634  67.007  0.00  0.00     0.088 H 
BRANCH   7   9
ATOM      9  N3  non d ame      -9.408  14.131  68.869  0.00  0.00    -0.346 N 
ATOM     10  C7  non d ame     -10.724  13.991  68.298  0.00  0.00     0.240 C 
ATOM     11  O3  non d ame     -10.885  14.146  67.148  0.00  0.00    -0.271 OA
ATOM     12  H10 non d ame      -9.285  13.997  69.862  0.00  0.00     0.163 HD
BRANCH  10  13
ATOM     13  C6  non d ame     -11.934  13.638  69.217  0.00  0.00     0.086 C 
ATOM     14  H6  non d ame     -12.845  13.430  68.656  0.00  0.00     0.086 H 
BRANCH  13  15
ATOM     15  N2  non d ame     -11.621  12.430  69.964  0.00  0.00    -0.343 N 
ATOM     16  C5  non d ame     -11.651  11.134  69.282  0.00  0.00     0.273 C 
ATOM     17  O2  non d ame     -11.929  11.073  68.135  0.00  0.00    -0.266 OA
ATOM     18  H5  non d ame     -11.387  12.490  70.944  0.00  0.00     0.163 HD
BRANCH  16  19
ATOM     19  C4  non d ame     -11.320   9.849  70.058  0.00  0.00     0.154 A 
ATOM     20  C1  non d ame     -11.656   9.549  71.417  0.00  0.00    -0.017 A 
ATOM     21  C2  non d ame     -11.130   8.258  71.645  0.00  0.00     0.077 A 
ATOM     22  H1  non d ame     -12.197  10.173  72.129  0.00  0.00     0.091 H 
ATOM     23  O1  non d ame     -10.563   7.869  70.539  0.00  0.00    -0.218 OA
ATOM     24  N1  non d ame     -10.661   8.782  69.600  0.00  0.00    -0.123 NA
BRANCH  21  25
ATOM     25  C3  non d ame     -11.215   7.466  72.943  0.00  0.00    -0.029 C 
ATOM     26  H2  non d ame     -10.216   7.143  73.238  0.00  0.00     0.036 H 
ATOM     27  H3  non d ame     -11.639   8.096  73.725  0.00  0.00     0.036 H 
ATOM     28  H4  non d ame     -11.851   6.593  72.796  0.00  0.00     0.036 H 
ENDBRANCH  21  25
ENDBRANCH  16  19
ENDBRANCH  13  15
BRANCH  13  29
ATOM     29  C8  non d ame     -12.197  14.778  70.168  0.00  0.00    -0.049 C 
ATOM     30  H7  non d ame     -13.252  15.047  70.130  0.00  0.00     0.030 H 
ATOM     31  H8  non d ame     -11.936  14.472  71.182  0.00  0.00     0.030 H 
ATOM     32  H9  non d ame     -11.593  15.637  69.880  0.00  0.00     0.030 H 
ENDBRANCH  13  29
ENDBRANCH  10  13
ENDBRANCH   7   9
BRANCH   7  33
ATOM     33  C11 non d ame      -7.548  15.725  68.576  0.00  0.00    -0.033 C 
ATOM     34  H12 non d ame      -6.775  16.010  67.862  0.00  0.00     0.042 H 
BRANCH  33  35
ATOM     35  C12 non d ame      -8.530  16.930  68.709  0.00  0.00    -0.071 C 
ATOM     36  H13 non d ame      -8.015  17.769  69.178  0.00  0.00     0.028 H 
ATOM     37  H14 non d ame      -8.880  17.225  67.720  0.00  0.00     0.028 H 
ATOM     38  H15 non d ame      -9.382  16.637  69.322  0.00  0.00     0.028 H 
ENDBRANCH  33  35
BRANCH  33  39
ATOM     39  C13 non d ame      -6.853  15.408  69.939  0.00  0.00    -0.071 C 
ATOM     40  H16 non d ame      -7.522  14.810  70.557  0.00  0.00     0.028 H 
ATOM     41  H17 non d ame      -5.932  14.853  69.757  0.00  0.00     0.028 H 
ATOM     42  H18 non d ame      -6.620  16.340  70.452  0.00  0.00     0.028 H 
ENDBRANCH  33  39
ENDBRANCH   7  33
ENDBRANCH   4   7
ENDBRANCH   1   3
BRANCH   1  43
ATOM     43  C15 non d ame      -7.062  10.020  67.567  0.00  0.00     0.240 C 
ATOM     44  O5  non d ame      -6.237   9.732  66.760  0.00  0.00    -0.271 OA
ATOM     45  N6  non d ame      -8.448   9.490  67.431  0.00  0.00    -0.355 N 
ATOM     46  H46 non d ame      -9.156   9.724  68.112  0.00  0.00     0.162 HD
BRANCH  45  47
ATOM     47  C20 non d ame      -8.790   8.615  66.288  0.00  0.00     0.013 C 
ATOM     48  H30 non d ame      -7.924   8.575  65.627  0.00  0.00     0.072 H 
BRANCH  47  49
ATOM     49  C21 non d ame      -9.975   9.196  65.551  0.00  0.00    -0.038 C 
ATOM     50  H31 non d ame     -10.145   8.536  64.700  0.00  0.00     0.036 H 
ATOM     51  H32 non d ame     -10.753   9.328  66.304  0.00  0.00     0.036 H 
BRANCH  49  52
ATOM     52  C22 non d ame      -9.691  10.597  64.967  0.00  0.00     0.018 C 
ATOM     53  H33 non d ame     -10.482  11.243  65.350  0.00  0.00     0.048 H 
ATOM     54  H34 non d ame      -8.649  10.811  65.207  0.00  0.00     0.048 H 
BRANCH  52  55
ATOM     55  C23 non d ame      -9.798  10.663  63.418  0.00  0.00     0.259 C 
ATOM     56  O7  non d ame     -10.548  11.423  62.899  0.00  0.00    -0.265 OA
BRANCH  55  57
ATOM     57  O8  non d ame      -8.998   9.793  62.627  0.00  0.00    -0.317 OA
BRANCH  57  58
ATOM     58  C29 non d ame      -7.601   9.851  62.927  0.00  0.00     0.052 C 
ATOM     59  H47 non d ame      -7.131  10.315  62.060  0.00  0.00     0.082 H 
ATOM     60  H48 non d ame      -7.529  10.327  63.905  0.00  0.00     0.082 H 
BRANCH  58  61
ATOM     61  C35 non d ame      -7.077   8.396  63.049  0.00  0.00    -0.034 A 
ATOM     62  C30 non d ame      -5.746   8.160  63.376  0.00  0.00    -0.075 A 
ATOM     63  C31 non d ame      -5.275   6.853  63.486  0.00  0.00    -0.082 A 
ATOM     64  H49 non d ame      -5.072   8.999  63.546  0.00  0.00     0.084 H 
ATOM     65  C32 non d ame      -6.141   5.778  63.265  0.00  0.00    -0.083 A 
ATOM     66  H50 non d ame      -4.231   6.671  63.744  0.00  0.00     0.083 H 
ATOM     67  C33 non d ame      -7.468   6.018  62.936  0.00  0.00    -0.082 A 
ATOM     68  H51 non d ame      -5.781   4.753  63.349  0.00  0.00     0.083 H 
ATOM     69  C34 non d ame      -7.943   7.323  62.827  0.00  0.00    -0.075 A 
ATOM     70  H52 non d ame      -8.140   5.177  62.762  0.00  0.00     0.083 H 
ATOM     71  H53 non d ame      -8.988   7.504  62.569  0.00  0.00     0.084 H 
ENDBRANCH  58  61
ENDBRANCH  57  58
ENDBRANCH  55  57
ENDBRANCH  52  55
ENDBRANCH  49  52
ENDBRANCH  47  49
BRANCH  47  72
ATOM     72  C24 non d ame      -9.138   7.218  66.794  0.00  0.00    -0.039 C 
ATOM     73  H35 non d ame      -9.510   7.360  67.809  0.00  0.00     0.036 H 
ATOM     74  H36 non d ame      -9.787   6.786  66.032  0.00  0.00     0.036 H 
BRANCH  72  75
ATOM     75  C25 non d ame      -7.840   6.283  66.894  0.00  0.00    -0.001 C 
ATOM     76  C26 non d ame      -8.175   4.792  66.288  0.00  0.00    -0.035 C 
ATOM     77  C27 non d ame      -7.804   3.858  67.196  0.00  0.00     0.085 C 
ATOM     78  H38 non d ame      -9.254   4.655  66.209  0.00  0.00     0.036 H 
ATOM     79  H39 non d ame      -7.535   4.583  65.431  0.00  0.00     0.036 H 
ATOM     80  N5  non d ame      -7.549   4.583  68.496  0.00  0.00    -0.049 N 
ATOM     81  H40 non d ame      -8.671   3.207  67.317  0.00  0.00     0.075 H 
ATOM     82  H41 non d ame      -6.863   3.451  66.827  0.00  0.00     0.075 H 
ATOM     83  C28 non d ame      -7.453   6.150  68.119  0.00  0.00     0.193 C 
ATOM     84  H42 non d ame      -8.368   4.440  69.069  0.00  0.00     0.280 HD
ATOM     85  H43 non d ame      -6.644   4.275  68.823  0.00  0.00     0.280 HD
ATOM     86  H44 non d ame      -6.486   6.651  68.077  0.00  0.00     0.129 H 
ATOM     87  H37 non d ame      -6.945   6.780  66.521  0.00  0.00     0.046 H 
BRANCH  83  88
ATOM     88  O6  non d ame      -8.245   6.923  69.022  0.00  0.00    -0.369 OA
ATOM     89  H45 non d ame      -7.784   7.736  69.236  0.00  0.00     0.212 HD
ENDBRANCH  83  88
ENDBRANCH  72  75
ENDBRANCH  47  72
ENDBRANCH  45  47
ENDBRANCH   1  43
BRANCH   1  90
ATOM     90  C16 non d ame      -6.819  10.165  70.066  0.00  0.00    -0.035 C 
ATOM     91  H21 non d ame      -7.366  10.825  70.739  0.00  0.00     0.037 H 
ATOM     92  H22 non d ame      -7.243   9.201  69.786  0.00  0.00     0.037 H 
BRANCH  90  93
ATOM     93  C17 non d ame      -5.453   9.863  70.758  0.00  0.00    -0.059 C 
ATOM     94  H23 non d ame      -5.530  10.184  71.797  0.00  0.00     0.038 H 
BRANCH  93  95
ATOM     95  C18 non d ame      -5.113   8.339  70.755  0.00  0.00    -0.073 C 
ATOM     96  H24 non d ame      -4.080   8.196  71.074  0.00  0.00     0.028 H 
ATOM     97  H25 non d ame      -5.780   7.816  71.441  0.00  0.00     0.028 H 
ATOM     98  H26 non d ame      -5.242   7.940  69.749  0.00  0.00     0.028 H 
ENDBRANCH  93  95
BRANCH  93  99
ATOM     99  C19 non d ame      -4.324  10.674  70.116  0.00  0.00    -0.073 C 
ATOM    100  H27 non d ame      -4.546  10.832  69.061  0.00  0.00     0.028 H 
ATOM    101  H28 non d ame      -4.238  11.638  70.618  0.00  0.00     0.028 H 
ATOM    102  H29 non d ame      -3.385  10.130  70.212  0.00  0.00     0.028 H 
ENDBRANCH  93  99
ENDBRANCH  90  93
ENDBRANCH   1  90
TORSDOF 26
ENDMDL
MODEL 19
REMARK VINA RESULT:      -5.7      2.943      7.456
REMARK  26 active torsions:
REMARK  status: ('A' for Active; 'I' for Inactive)
REMARK    1  A    between atoms: C2_2  and  C3_3 
REMARK    2  A    between atoms: C4_6  and  C5_7 
REMARK       I    between atoms: C5_7  and  N2_9 
REMARK    3  A    between atoms: N2_9  and  C6_10 
REMARK    4  A    between atoms: C6_10  and  C7_11 
REMARK    5  A    between atoms: C6_10  and  C8_13 
REMARK       I    between atoms: C7_11  and  N3_14 
REMARK    6  A    between atoms: N3_14  and  C9_15 
REMARK    7  A    between atoms: C9_15  and  C10_16 
REMARK    8  A    between atoms: C9_15  and  C11_18 
REMARK       I    between atoms: C10_16  and  N4_21 
REMARK    9  A    between atoms: C11_18  and  C12_19 
REMARK   10  A    between atoms: C11_18  and  C13_20 
REMARK   11  A    between atoms: N4_21  and  C14_22 
REMARK   12  A    between atoms: C14_22  and  C15_23 
REMARK   13  A    between atoms: C14_22  and  C16_25 
REMARK       I    between atoms: C15_23  and  N6_40 
REMARK   14  A    between atoms: C16_25  and  C17_26 
REMARK   15  A    between atoms: C17_26  and  C18_27 
REMARK   16  A    between atoms: C17_26  and  C19_28 
REMARK   17  A    between atoms: C20_29  and  C21_30 
REMARK   18  A    between atoms: C20_29  and  C24_33 
REMARK   19  A    between atoms: C20_29  and  N6_40 
REMARK   20  A    between atoms: C21_30  and  C22_31 
REMARK   21  A    between atoms: C22_31  and  C23_32 
REMARK   22  A    between atoms: C23_32  and  O8_43 
REMARK   23  A    between atoms: C24_33  and  C25_34 
REMARK   24  A    between atoms: C28_38  and  O6_39 
REMARK   25  A    between atoms: C29_42  and  O8_43 
REMARK   26  A    between atoms: C29_42  and  C35_49 
ROOT
ATOM      1  C14 non d ame      -7.840  10.371  69.211  0.00  0.00     0.089 C 
ATOM      2  H20 non d ame      -8.094  10.747  70.202  0.00  0.00     0.087 H 
ENDROOT
BRANCH   1   3
ATOM      3  N4  non d ame      -8.445   9.054  69.074  0.00  0.00    -0.346 N 
ATOM      4  C10 non d ame      -9.819   8.784  69.633  0.00  0.00     0.241 C 
ATOM      5  O4  non d ame     -10.418   9.643  70.193  0.00  0.00    -0.271 OA
ATOM      6  H19 non d ame      -7.917   8.336  68.596  0.00  0.00     0.163 HD
BRANCH   4   7
ATOM      7  C9  non d ame     -10.432   7.418  69.477  0.00  0.00     0.092 C 
ATOM      8  H11 non d ame     -11.418   7.517  69.024  0.00  0.00     0.088 H 
BRANCH   7   9
ATOM      9  N3  non d ame      -9.614   6.617  68.561  0.00  0.00    -0.346 N 
ATOM     10  C7  non d ame     -10.144   6.219  67.281  0.00  0.00     0.240 C 
ATOM     11  O3  non d ame     -11.229   6.533  66.972  0.00  0.00    -0.271 OA
ATOM     12  H10 non d ame      -8.677   6.337  68.815  0.00  0.00     0.163 HD
BRANCH  10  13
ATOM     13  C6  non d ame      -9.270   5.364  66.312  0.00  0.00     0.086 C 
ATOM     14  H6  non d ame      -9.748   4.426  66.029  0.00  0.00     0.086 H 
BRANCH  13  15
ATOM     15  N2  non d ame      -9.060   6.111  65.084  0.00  0.00    -0.343 N 
ATOM     16  C5  non d ame      -8.457   7.445  65.145  0.00  0.00     0.273 C 
ATOM     17  O2  non d ame      -8.147   7.907  66.188  0.00  0.00    -0.266 OA
ATOM     18  H5  non d ame      -9.330   5.710  64.197  0.00  0.00     0.163 HD
BRANCH  16  19
ATOM     19  C4  non d ame      -8.227   8.246  63.854  0.00  0.00     0.154 A 
ATOM     20  C1  non d ame      -7.961   9.648  63.743  0.00  0.00    -0.017 A 
ATOM     21  C2  non d ame      -7.829   9.884  62.356  0.00  0.00     0.077 A 
ATOM     22  H1  non d ame      -7.877  10.382  64.545  0.00  0.00     0.091 H 
ATOM     23  O1  non d ame      -7.999   8.744  61.751  0.00  0.00    -0.218 OA
ATOM     24  N1  non d ame      -8.233   7.774  62.605  0.00  0.00    -0.123 NA
BRANCH  21  25
ATOM     25  C3  non d ame      -7.539  11.223  61.693  0.00  0.00    -0.029 C 
ATOM     26  H2  non d ame      -8.179  11.992  62.130  0.00  0.00     0.036 H 
ATOM     27  H3  non d ame      -6.494  11.488  61.851  0.00  0.00     0.036 H 
ATOM     28  H4  non d ame      -7.737  11.151  60.623  0.00  0.00     0.036 H 
ENDBRANCH  21  25
ENDBRANCH  16  19
ENDBRANCH  13  15
BRANCH  13  29
ATOM     29  C8  non d ame      -7.945   5.058  66.963  0.00  0.00    -0.049 C 
ATOM     30  H7  non d ame      -7.994   5.307  68.023  0.00  0.00     0.030 H 
ATOM     31  H8  non d ame      -7.722   3.996  66.849  0.00  0.00     0.030 H 
ATOM     32  H9  non d ame      -7.163   5.647  66.487  0.00  0.00     0.030 H 
ENDBRANCH  13  29
ENDBRANCH  10  13
ENDBRANCH   7   9
BRANCH   7  33
ATOM     33  C11 non d ame     -10.492   6.714  70.865  0.00  0.00    -0.033 C 
ATOM     34  H12 non d ame      -9.942   7.335  71.572  0.00  0.00     0.042 H 
BRANCH  33  35
ATOM     35  C12 non d ame     -11.960   6.603  71.382  0.00  0.00    -0.071 C 
ATOM     36  H13 non d ame     -12.159   5.577  71.692  0.00  0.00     0.028 H 
ATOM     37  H14 non d ame     -12.099   7.272  72.231  0.00  0.00     0.028 H 
ATOM     38  H15 non d ame     -12.648   6.882  70.584  0.00  0.00     0.028 H 
ENDBRANCH  33  35
BRANCH  33  39
ATOM     39  C13 non d ame      -9.802   5.314  70.812  0.00  0.00    -0.071 C 
ATOM     40  H16 non d ame      -8.730   5.442  70.669  0.00  0.00     0.028 H 
ATOM     41  H17 non d ame      -9.984   4.783  71.746  0.00  0.00     0.028 H 
ATOM     42  H18 non d ame     -10.213   4.739  69.982  0.00  0.00     0.028 H 
ENDBRANCH  33  39
ENDBRANCH   7  33
ENDBRANCH   4   7
ENDBRANCH   1   3
BRANCH   1  43
ATOM     43  C15 non d ame      -8.384  11.286  68.077  0.00  0.00     0.240 C 
ATOM     44  O5  non d ame      -7.890  11.246  66.997  0.00  0.00    -0.271 OA
ATOM     45  N6  non d ame      -9.528  12.207  68.335  0.00  0.00    -0.355 N 
ATOM     46  H46 non d ame      -9.959  12.247  69.248  0.00  0.00     0.162 HD
BRANCH  45  47
ATOM     47  C20 non d ame     -10.034  13.070  67.246  0.00  0.00     0.013 C 
ATOM     48  H30 non d ame      -9.552  12.758  66.320  0.00  0.00     0.072 H 
BRANCH  47  49
ATOM     49  C21 non d ame      -9.688  14.511  67.548  0.00  0.00    -0.038 C 
ATOM     50  H31 non d ame     -10.615  14.972  67.888  0.00  0.00     0.036 H 
ATOM     51  H32 non d ame      -8.822  14.472  68.211  0.00  0.00     0.036 H 
BRANCH  49  52
ATOM     52  C22 non d ame      -9.242  15.295  66.295  0.00  0.00     0.018 C 
ATOM     53  H33 non d ame      -8.343  15.838  66.590  0.00  0.00     0.048 H 
ATOM     54  H34 non d ame      -9.197  14.563  65.488  0.00  0.00     0.048 H 
BRANCH  52  55
ATOM     55  C23 non d ame     -10.262  16.375  65.838  0.00  0.00     0.259 C 
ATOM     56  O7  non d ame     -10.780  16.301  64.771  0.00  0.00    -0.265 OA
BRANCH  55  57
ATOM     57  O8  non d ame     -10.560  17.463  66.703  0.00  0.00    -0.317 OA
BRANCH  57  58
ATOM     58  C29 non d ame     -10.155  18.739  66.198  0.00  0.00     0.052 C 
ATOM     59  H47 non d ame      -9.855  18.566  65.165  0.00  0.00     0.082 H 
ATOM     60  H48 non d ame     -10.978  19.419  66.420  0.00  0.00     0.082 H 
BRANCH  58  61
ATOM     61  C35 non d ame      -8.909  19.198  67.001  0.00  0.00    -0.034 A 
ATOM     62  C30 non d ame      -8.224  20.349  66.626  0.00  0.00    -0.075 A 
ATOM     63  C31 non d ame      -7.105  20.761  67.348  0.00  0.00    -0.082 A 
ATOM     64  H49 non d ame      -8.563  20.927  65.768  0.00  0.00     0.084 H 
ATOM     65  C32 non d ame      -6.670  20.017  68.447  0.00  0.00    -0.083 A 
ATOM     66  H50 non d ame      -6.571  21.664  67.052  0.00  0.00     0.083 H 
ATOM     67  C33 non d ame      -7.355  18.867  68.816  0.00  0.00    -0.082 A 
ATOM     68  H51 non d ame      -5.796  20.332  69.017  0.00  0.00     0.083 H 
ATOM     69  C34 non d ame      -8.475  18.452  68.099  0.00  0.00    -0.075 A 
ATOM     70  H52 non d ame      -7.011  18.286  69.673  0.00  0.00     0.083 H 
ATOM     71  H53 non d ame      -9.009  17.548  68.396  0.00  0.00     0.084 H 
ENDBRANCH  58  61
ENDBRANCH  57  58
ENDBRANCH  55  57
ENDBRANCH  52  55
ENDBRANCH  49  52
ENDBRANCH  47  49
BRANCH  47  72
ATOM     72  C24 non d ame     -11.549  12.922  67.133  0.00  0.00    -0.039 C 
ATOM     73  H35 non d ame     -11.825  12.177  67.879  0.00  0.00     0.036 H 
ATOM     74  H36 non d ame     -11.946  13.936  67.202  0.00  0.00     0.036 H 
BRANCH  72  75
ATOM     75  C25 non d ame     -11.982  12.343  65.703  0.00  0.00    -0.001 C 
ATOM     76  C26 non d ame     -10.647  11.950  64.829  0.00  0.00    -0.035 C 
ATOM     77  C27 non d ame     -10.736  12.533  63.609  0.00  0.00     0.085 C 
ATOM     78  H38 non d ame      -9.763  12.414  65.268  0.00  0.00     0.036 H 
ATOM     79  H39 non d ame     -10.647  10.884  64.603  0.00  0.00     0.036 H 
ATOM     80  N5  non d ame     -11.849  13.549  63.686  0.00  0.00    -0.049 N 
ATOM     81  H40 non d ame      -9.789  13.053  63.464  0.00  0.00     0.075 H 
ATOM     82  H41 non d ame     -11.031  11.735  62.927  0.00  0.00     0.075 H 
ATOM     83  C28 non d ame     -12.668  13.211  65.036  0.00  0.00     0.193 C 
ATOM     84  H42 non d ame     -11.407  14.451  63.797  0.00  0.00     0.280 HD
ATOM     85  H43 non d ame     -12.450  13.377  62.894  0.00  0.00     0.280 HD
ATOM     86  H44 non d ame     -13.633  12.705  64.986  0.00  0.00     0.129 H 
ATOM     87  H37 non d ame     -12.762  11.586  65.784  0.00  0.00     0.046 H 
BRANCH  83  88
ATOM     88  O6  non d ame     -12.901  14.405  65.784  0.00  0.00    -0.369 OA
ATOM     89  H45 non d ame     -12.342  15.108  65.445  0.00  0.00     0.212 HD
ENDBRANCH  83  88
ENDBRANCH  72  75
ENDBRANCH  47  72
ENDBRANCH  45  47
ENDBRANCH   1  43
BRANCH   1  90
ATOM     90  C16 non d ame      -6.330  10.240  69.083  0.00  0.00    -0.035 C 
ATOM     91  H21 non d ame      -6.054   9.422  69.748  0.00  0.00     0.037 H 
ATOM     92  H22 non d ame      -6.138  10.161  68.013  0.00  0.00     0.037 H 
BRANCH  90  93
ATOM     93  C17 non d ame      -5.548  11.496  69.581  0.00  0.00    -0.059 C 
ATOM     94  H23 non d ame      -6.192  12.364  69.438  0.00  0.00     0.038 H 
BRANCH  93  95
ATOM     95  C18 non d ame      -5.196  11.408  71.100  0.00  0.00    -0.073 C 
ATOM     96  H24 non d ame      -5.657  10.518  71.529  0.00  0.00     0.028 H 
ATOM     97  H25 non d ame      -4.114  11.349  71.219  0.00  0.00     0.028 H 
ATOM     98  H26 non d ame      -5.570  12.294  71.612  0.00  0.00     0.028 H 
ENDBRANCH  93  95
BRANCH  93  99
ATOM     99  C19 non d ame      -4.288  11.724  68.742  0.00  0.00    -0.073 C 
ATOM    100  H27 non d ame      -3.966  10.777  68.307  0.00  0.00     0.028 H 
ATOM    101  H28 non d ame      -4.506  12.435  67.945  0.00  0.00     0.028 H 
ATOM    102  H29 non d ame      -3.496  12.120  69.376  0.00  0.00     0.028 H 
ENDBRANCH  93  99
ENDBRANCH  90  93
ENDBRANCH   1  90
TORSDOF 26
ENDMDL
MODEL 20
REMARK VINA RESULT:      -5.7      2.188      7.518
REMARK  26 active torsions:
REMARK  status: ('A' for Active; 'I' for Inactive)
REMARK    1  A    between atoms: C2_2  and  C3_3 
REMARK    2  A    between atoms: C4_6  and  C5_7 
REMARK       I    between atoms: C5_7  and  N2_9 
REMARK    3  A    between atoms: N2_9  and  C6_10 
REMARK    4  A    between atoms: C6_10  and  C7_11 
REMARK    5  A    between atoms: C6_10  and  C8_13 
REMARK       I    between atoms: C7_11  and  N3_14 
REMARK    6  A    between atoms: N3_14  and  C9_15 
REMARK    7  A    between atoms: C9_15  and  C10_16 
REMARK    8  A    between atoms: C9_15  and  C11_18 
REMARK       I    between atoms: C10_16  and  N4_21 
REMARK    9  A    between atoms: C11_18  and  C12_19 
REMARK   10  A    between atoms: C11_18  and  C13_20 
REMARK   11  A    between atoms: N4_21  and  C14_22 
REMARK   12  A    between atoms: C14_22  and  C15_23 
REMARK   13  A    between atoms: C14_22  and  C16_25 
REMARK       I    between atoms: C15_23  and  N6_40 
REMARK   14  A    between atoms: C16_25  and  C17_26 
REMARK   15  A    between atoms: C17_26  and  C18_27 
REMARK   16  A    between atoms: C17_26  and  C19_28 
REMARK   17  A    between atoms: C20_29  and  C21_30 
REMARK   18  A    between atoms: C20_29  and  C24_33 
REMARK   19  A    between atoms: C20_29  and  N6_40 
REMARK   20  A    between atoms: C21_30  and  C22_31 
REMARK   21  A    between atoms: C22_31  and  C23_32 
REMARK   22  A    between atoms: C23_32  and  O8_43 
REMARK   23  A    between atoms: C24_33  and  C25_34 
REMARK   24  A    between atoms: C28_38  and  O6_39 
REMARK   25  A    between atoms: C29_42  and  O8_43 
REMARK   26  A    between atoms: C29_42  and  C35_49 
ROOT
ATOM      1  C14 non d ame      -6.579  16.024  67.901  0.00  0.00     0.089 C 
ATOM      2  H20 non d ame      -6.039  16.420  67.041  0.00  0.00     0.087 H 
ENDROOT
BRANCH   1   3
ATOM      3  N4  non d ame      -8.001  16.186  67.640  0.00  0.00    -0.346 N 
ATOM      4  C10 non d ame      -8.473  17.082  66.522  0.00  0.00     0.241 C 
ATOM      5  O4  non d ame      -7.688  17.664  65.847  0.00  0.00    -0.271 OA
ATOM      6  H19 non d ame      -8.653  15.685  68.228  0.00  0.00     0.163 HD
BRANCH   4   7
ATOM      7  C9  non d ame      -9.948  17.235  66.263  0.00  0.00     0.092 C 
ATOM      8  H11 non d ame     -10.118  17.306  65.188  0.00  0.00     0.088 H 
BRANCH   7   9
ATOM      9  N3  non d ame     -10.654  16.039  66.734  0.00  0.00    -0.346 N 
ATOM     10  C7  non d ame     -10.923  14.954  65.823  0.00  0.00     0.240 C 
ATOM     11  O3  non d ame     -10.580  15.027  64.706  0.00  0.00    -0.271 OA
ATOM     12  H10 non d ame     -10.958  15.964  67.694  0.00  0.00     0.163 HD
BRANCH  10  13
ATOM     13  C6  non d ame     -11.678  13.687  66.330  0.00  0.00     0.086 C 
ATOM     14  H6  non d ame     -11.012  12.842  66.508  0.00  0.00     0.086 H 
BRANCH  13  15
ATOM     15  N2  non d ame     -12.310  13.992  67.603  0.00  0.00    -0.343 N 
ATOM     16  C5  non d ame     -11.704  13.504  68.844  0.00  0.00     0.273 C 
ATOM     17  O2  non d ame     -10.712  12.864  68.807  0.00  0.00    -0.266 OA
ATOM     18  H5  non d ame     -13.159  14.538  67.625  0.00  0.00     0.163 HD
BRANCH  16  19
ATOM     19  C4  non d ame     -12.360  13.821  70.197  0.00  0.00     0.154 A 
ATOM     20  C1  non d ame     -12.698  15.113  70.712  0.00  0.00    -0.017 A 
ATOM     21  C2  non d ame     -13.270  14.861  71.979  0.00  0.00     0.077 A 
ATOM     22  H1  non d ame     -12.549  16.085  70.240  0.00  0.00     0.091 H 
ATOM     23  O1  non d ame     -13.261  13.572  72.160  0.00  0.00    -0.218 OA
ATOM     24  N1  non d ame     -12.733  12.944  71.133  0.00  0.00    -0.123 NA
BRANCH  21  25
ATOM     25  C3  non d ame     -13.803  15.905  72.951  0.00  0.00    -0.029 C 
ATOM     26  H2  non d ame     -13.105  16.741  73.007  0.00  0.00     0.036 H 
ATOM     27  H3  non d ame     -14.772  16.264  72.603  0.00  0.00     0.036 H 
ATOM     28  H4  non d ame     -13.915  15.459  73.940  0.00  0.00     0.036 H 
ENDBRANCH  21  25
ENDBRANCH  16  19
ENDBRANCH  13  15
BRANCH  13  29
ATOM     29  C8  non d ame     -12.721  13.281  65.321  0.00  0.00    -0.049 C 
ATOM     30  H7  non d ame     -12.833  14.070  64.576  0.00  0.00     0.030 H 
ATOM     31  H8  non d ame     -12.411  12.359  64.828  0.00  0.00     0.030 H 
ATOM     32  H9  non d ame     -13.673  13.122  65.825  0.00  0.00     0.030 H 
ENDBRANCH  13  29
ENDBRANCH  10  13
ENDBRANCH   7   9
BRANCH   7  33
ATOM     33  C11 non d ame     -10.483  18.484  67.023  0.00  0.00    -0.033 C 
ATOM     34  H12 non d ame     -11.549  18.334  67.192  0.00  0.00     0.042 H 
BRANCH  33  35
ATOM     35  C12 non d ame      -9.803  18.633  68.420  0.00  0.00    -0.071 C 
ATOM     36  H13 non d ame      -9.848  17.681  68.949  0.00  0.00     0.028 H 
ATOM     37  H14 non d ame      -8.761  18.925  68.288  0.00  0.00     0.028 H 
ATOM     38  H15 non d ame     -10.324  19.396  68.997  0.00  0.00     0.028 H 
ENDBRANCH  33  35
BRANCH  33  39
ATOM     39  C13 non d ame     -10.306  19.778  66.166  0.00  0.00    -0.071 C 
ATOM     40  H16 non d ame     -10.336  19.520  65.108  0.00  0.00     0.028 H 
ATOM     41  H17 non d ame     -11.111  20.478  66.393  0.00  0.00     0.028 H 
ATOM     42  H18 non d ame      -9.347  20.239  66.400  0.00  0.00     0.028 H 
ENDBRANCH  33  39
ENDBRANCH   7  33
ENDBRANCH   4   7
ENDBRANCH   1   3
BRANCH   1  43
ATOM     43  C15 non d ame      -6.288  14.513  68.133  0.00  0.00     0.240 C 
ATOM     44  O5  non d ame      -5.489  14.183  68.950  0.00  0.00    -0.271 OA
ATOM     45  N6  non d ame      -7.009  13.476  67.342  0.00  0.00    -0.355 N 
ATOM     46  H46 non d ame      -7.692  13.744  66.647  0.00  0.00     0.162 HD
BRANCH  45  47
ATOM     47  C20 non d ame      -6.722  12.045  67.575  0.00  0.00     0.013 C 
ATOM     48  H30 non d ame      -6.335  11.941  68.588  0.00  0.00     0.072 H 
BRANCH  47  49
ATOM     49  C21 non d ame      -5.689  11.573  66.577  0.00  0.00    -0.038 C 
ATOM     50  H31 non d ame      -6.237  10.985  65.840  0.00  0.00     0.036 H 
ATOM     51  H32 non d ame      -5.149  12.468  66.267  0.00  0.00     0.036 H 
BRANCH  49  52
ATOM     52  C22 non d ame      -4.641  10.626  67.201  0.00  0.00     0.018 C 
ATOM     53  H33 non d ame      -3.669  11.033  66.918  0.00  0.00     0.048 H 
ATOM     54  H34 non d ame      -4.911  10.540  68.253  0.00  0.00     0.048 H 
BRANCH  52  55
ATOM     55  C23 non d ame      -4.683   9.182  66.627  0.00  0.00     0.259 C 
ATOM     56  O7  non d ame      -5.170   8.299  67.254  0.00  0.00    -0.265 OA
BRANCH  55  57
ATOM     57  O8  non d ame      -4.118   8.923  65.348  0.00  0.00    -0.317 OA
BRANCH  57  58
ATOM     58  C29 non d ame      -4.610   7.734  64.722  0.00  0.00     0.052 C 
ATOM     59  H47 non d ame      -3.787   7.355  64.119  0.00  0.00     0.082 H 
ATOM     60  H48 non d ame      -5.021   7.126  65.528  0.00  0.00     0.082 H 
BRANCH  58  61
ATOM     61  C35 non d ame      -5.770   8.138  63.773  0.00  0.00    -0.034 A 
ATOM     62  C30 non d ame      -5.777   9.394  63.176  0.00  0.00    -0.075 A 
ATOM     63  C31 non d ame      -6.818   9.756  62.324  0.00  0.00    -0.082 A 
ATOM     64  H49 non d ame      -4.966  10.094  63.377  0.00  0.00     0.084 H 
ATOM     65  C32 non d ame      -7.857   8.857  62.070  0.00  0.00    -0.083 A 
ATOM     66  H50 non d ame      -6.819  10.741  61.856  0.00  0.00     0.083 H 
ATOM     67  C33 non d ame      -7.849   7.605  62.671  0.00  0.00    -0.082 A 
ATOM     68  H51 non d ame      -8.676   9.132  61.405  0.00  0.00     0.083 H 
ATOM     69  C34 non d ame      -6.808   7.238  63.522  0.00  0.00    -0.075 A 
ATOM     70  H52 non d ame      -8.662   6.907  62.473  0.00  0.00     0.083 H 
ATOM     71  H53 non d ame      -6.807   6.252  63.989  0.00  0.00     0.084 H 
ENDBRANCH  58  61
ENDBRANCH  57  58
ENDBRANCH  55  57
ENDBRANCH  52  55
ENDBRANCH  49  52
ENDBRANCH  47  49
BRANCH  47  72
ATOM     72  C24 non d ame      -8.001  11.228  67.409  0.00  0.00    -0.039 C 
ATOM     73  H35 non d ame      -7.924  10.416  68.133  0.00  0.00     0.036 H 
ATOM     74  H36 non d ame      -8.817  11.947  67.484  0.00  0.00     0.036 H 
BRANCH  72  75
ATOM     75  C25 non d ame      -8.093  10.558  65.957  0.00  0.00    -0.001 C 
ATOM     76  C26 non d ame      -9.300  11.262  65.090  0.00  0.00    -0.035 C 
ATOM     77  C27 non d ame     -10.105  10.292  64.594  0.00  0.00     0.085 C 
ATOM     78  H38 non d ame      -9.958  11.823  65.754  0.00  0.00     0.036 H 
ATOM     79  H39 non d ame      -8.892  11.737  64.198  0.00  0.00     0.036 H 
ATOM     80  N5  non d ame      -9.747   9.012  65.310  0.00  0.00    -0.049 N 
ATOM     81  H40 non d ame     -11.118  10.583  64.871  0.00  0.00     0.075 H 
ATOM     82  H41 non d ame      -9.832  10.198  63.543  0.00  0.00     0.075 H 
ATOM     83  C28 non d ame      -8.334   9.292  66.041  0.00  0.00     0.193 C 
ATOM     84  H42 non d ame     -10.453   8.874  66.019  0.00  0.00     0.280 HD
ATOM     85  H43 non d ame      -9.606   8.313  64.595  0.00  0.00     0.280 HD
ATOM     86  H44 non d ame      -7.409   8.886  65.630  0.00  0.00     0.129 H 
ATOM     87  H37 non d ame      -7.118  10.480  65.476  0.00  0.00     0.046 H 
BRANCH  83  88
ATOM     88  O6  non d ame      -8.383   8.840  67.395  0.00  0.00    -0.369 OA
ATOM     89  H45 non d ame      -8.892   8.029  67.443  0.00  0.00     0.212 HD
ENDBRANCH  83  88
ENDBRANCH  72  75
ENDBRANCH  47  72
ENDBRANCH  45  47
ENDBRANCH   1  43
BRANCH   1  90
ATOM     90  C16 non d ame      -6.209  16.812  69.148  0.00  0.00    -0.035 C 
ATOM     91  H21 non d ame      -7.156  17.155  69.564  0.00  0.00     0.037 H 
ATOM     92  H22 non d ame      -5.567  16.150  69.728  0.00  0.00     0.037 H 
BRANCH  90  93
ATOM     93  C17 non d ame      -5.368  18.094  68.851  0.00  0.00    -0.059 C 
ATOM     94  H23 non d ame      -4.655  18.218  69.666  0.00  0.00     0.038 H 
BRANCH  93  95
ATOM     95  C18 non d ame      -4.558  17.975  67.522  0.00  0.00    -0.073 C 
ATOM     96  H24 non d ame      -4.914  17.114  66.955  0.00  0.00     0.028 H 
ATOM     97  H25 non d ame      -4.694  18.880  66.931  0.00  0.00     0.028 H 
ATOM     98  H26 non d ame      -3.500  17.847  67.751  0.00  0.00     0.028 H 
ENDBRANCH  93  95
BRANCH  93  99
ATOM     99  C19 non d ame      -6.259  19.340  68.836  0.00  0.00    -0.073 C 
ATOM    100  H27 non d ame      -7.144  19.160  69.447  0.00  0.00     0.028 H 
ATOM    101  H28 non d ame      -5.705  20.188  69.239  0.00  0.00     0.028 H 
ATOM    102  H29 non d ame      -6.562  19.557  67.813  0.00  0.00     0.028 H 
ENDBRANCH  93  99
ENDBRANCH  90  93
ENDBRANCH   1  90
TORSDOF 26
ENDMDL
