MODEL 1
REMARK VINA RESULT:      -6.6      0.000      0.000
REMARK  26 active torsions:
REMARK  status: ('A' for Active; 'I' for Inactive)
REMARK    1  A    between atoms: C2_2  and  C3_3 
REMARK    2  A    between atoms: C4_6  and  C5_7 
REMARK       I    between atoms: C5_7  and  N2_9 
REMARK    3  A    between atoms: N2_9  and  C6_10 
REMARK    4  A    between atoms: C6_10  and  C7_11 
REMARK    5  A    between atoms: C6_10  and  C8_13 
REMARK       I    between atoms: C7_11  and  N3_14 
REMARK    6  A    between atoms: N3_14  and  C9_15 
REMARK    7  A    between atoms: C9_15  and  C10_16 
REMARK    8  A    between atoms: C9_15  and  C11_18 
REMARK       I    between atoms: C10_16  and  N4_21 
REMARK    9  A    between atoms: C11_18  and  C12_19 
REMARK   10  A    between atoms: C11_18  and  C13_20 
REMARK   11  A    between atoms: N4_21  and  C14_22 
REMARK   12  A    between atoms: C14_22  and  C15_23 
REMARK   13  A    between atoms: C14_22  and  C16_25 
REMARK       I    between atoms: C15_23  and  N6_40 
REMARK   14  A    between atoms: C16_25  and  C17_26 
REMARK   15  A    between atoms: C17_26  and  C18_27 
REMARK   16  A    between atoms: C17_26  and  C19_28 
REMARK   17  A    between atoms: C20_29  and  C21_30 
REMARK   18  A    between atoms: C20_29  and  C24_33 
REMARK   19  A    between atoms: C20_29  and  N6_40 
REMARK   20  A    between atoms: C21_30  and  C22_31 
REMARK   21  A    between atoms: C22_31  and  C23_32 
REMARK   22  A    between atoms: C23_32  and  O8_43 
REMARK   23  A    between atoms: C24_33  and  C25_34 
REMARK   24  A    between atoms: C28_38  and  O6_39 
REMARK   25  A    between atoms: C29_42  and  O8_43 
REMARK   26  A    between atoms: C29_42  and  C35_49 
ROOT
ATOM      1  C14 non d ame     -10.009   9.177  66.814  0.00  0.00     0.089 C 
ATOM      2  H20 non d ame     -11.012   8.752  66.860  0.00  0.00     0.087 H 
ENDROOT
BRANCH   1   3
ATOM      3  N4  non d ame     -10.143  10.578  66.443  0.00  0.00    -0.346 N 
ATOM      4  C10 non d ame     -11.272  11.409  67.001  0.00  0.00     0.241 C 
ATOM      5  O4  non d ame     -12.061  10.926  67.745  0.00  0.00    -0.271 OA
ATOM      6  H19 non d ame      -9.462  10.968  65.806  0.00  0.00     0.163 HD
BRANCH   4   7
ATOM      7  C9  non d ame     -11.393  12.858  66.611  0.00  0.00     0.092 C 
ATOM      8  H11 non d ame     -12.428  13.176  66.729  0.00  0.00     0.088 H 
BRANCH   7   9
ATOM      9  N3  non d ame     -10.583  13.678  67.518  0.00  0.00    -0.346 N 
ATOM     10  C7  non d ame     -11.213  14.396  68.597  0.00  0.00     0.240 C 
ATOM     11  O3  non d ame     -12.372  14.328  68.750  0.00  0.00    -0.271 OA
ATOM     12  H10 non d ame      -9.583  13.747  67.397  0.00  0.00     0.163 HD
BRANCH  10  13
ATOM     13  C6  non d ame     -10.346  15.269  69.557  0.00  0.00     0.086 C 
ATOM     14  H6  non d ame      -9.460  14.747  69.918  0.00  0.00     0.086 H 
BRANCH  13  15
ATOM     15  N2  non d ame      -9.874  16.437  68.832  0.00  0.00    -0.343 N 
ATOM     16  C5  non d ame      -8.623  16.358  68.074  0.00  0.00     0.273 C 
ATOM     17  O2  non d ame      -8.004  15.352  68.055  0.00  0.00    -0.266 OA
ATOM     18  H5  non d ame     -10.407  17.294  68.855  0.00  0.00     0.163 HD
BRANCH  16  19
ATOM     19  C4  non d ame      -8.112  17.585  67.301  0.00  0.00     0.154 A 
ATOM     20  C1  non d ame      -7.489  18.752  67.847  0.00  0.00    -0.017 A 
ATOM     21  C2  non d ame      -7.212  19.572  66.730  0.00  0.00     0.077 A 
ATOM     22  H1  non d ame      -7.271  18.971  68.893  0.00  0.00     0.091 H 
ATOM     23  O1  non d ame      -7.630  18.940  65.672  0.00  0.00    -0.218 OA
ATOM     24  N1  non d ame      -8.160  17.778  65.981  0.00  0.00    -0.123 NA
BRANCH  21  25
ATOM     25  C3  non d ame      -6.546  20.941  66.760  0.00  0.00    -0.029 C 
ATOM     26  H2  non d ame      -5.714  20.926  67.466  0.00  0.00     0.036 H 
ATOM     27  H3  non d ame      -6.174  21.185  65.766  0.00  0.00     0.036 H 
ATOM     28  H4  non d ame      -7.272  21.693  67.071  0.00  0.00     0.036 H 
ENDBRANCH  21  25
ENDBRANCH  16  19
ENDBRANCH  13  15
BRANCH  13  29
ATOM     29  C8  non d ame     -11.176  15.697  70.740  0.00  0.00    -0.049 C 
ATOM     30  H7  non d ame     -11.786  14.859  71.078  0.00  0.00     0.030 H 
ATOM     31  H8  non d ame     -10.517  16.016  71.549  0.00  0.00     0.030 H 
ATOM     32  H9  non d ame     -11.823  16.523  70.450  0.00  0.00     0.030 H 
ENDBRANCH  13  29
ENDBRANCH  10  13
ENDBRANCH   7   9
BRANCH   7  33
ATOM     33  C11 non d ame     -10.885  13.047  65.152  0.00  0.00    -0.033 C 
ATOM     34  H12 non d ame     -10.051  12.361  65.002  0.00  0.00     0.042 H 
BRANCH  33  35
ATOM     35  C12 non d ame     -11.989  12.676  64.113  0.00  0.00    -0.071 C 
ATOM     36  H13 non d ame     -11.523  12.255  63.222  0.00  0.00     0.028 H 
ATOM     37  H14 non d ame     -12.666  11.942  64.549  0.00  0.00     0.028 H 
ATOM     38  H15 non d ame     -12.548  13.571  63.843  0.00  0.00     0.028 H 
ENDBRANCH  33  35
BRANCH  33  39
ATOM     39  C13 non d ame     -10.361  14.502  64.926  0.00  0.00    -0.071 C 
ATOM     40  H16 non d ame      -9.958  14.591  63.918  0.00  0.00     0.028 H 
ATOM     41  H17 non d ame     -11.182  15.208  65.054  0.00  0.00     0.028 H 
ATOM     42  H18 non d ame      -9.577  14.721  65.651  0.00  0.00     0.028 H 
ENDBRANCH  33  39
ENDBRANCH   7  33
ENDBRANCH   4   7
ENDBRANCH   1   3
BRANCH   1  43
ATOM     43  C15 non d ame      -9.272   9.095  68.181  0.00  0.00     0.240 C 
ATOM     44  O5  non d ame      -8.278   9.724  68.355  0.00  0.00    -0.271 OA
ATOM     45  N6  non d ame      -9.809   8.240  69.277  0.00  0.00    -0.355 N 
ATOM     46  H46 non d ame     -10.655   7.704  69.143  0.00  0.00     0.162 HD
BRANCH  45  47
ATOM     47  C20 non d ame      -9.097   8.174  70.572  0.00  0.00     0.013 C 
ATOM     48  H30 non d ame      -8.211   8.804  70.499  0.00  0.00     0.072 H 
BRANCH  47  49
ATOM     49  C21 non d ame      -8.692   6.743  70.847  0.00  0.00    -0.038 C 
ATOM     50  H31 non d ame      -7.677   6.645  70.461  0.00  0.00     0.036 H 
ATOM     51  H32 non d ame      -8.891   6.581  71.907  0.00  0.00     0.036 H 
BRANCH  49  52
ATOM     52  C22 non d ame      -9.554   5.718  70.080  0.00  0.00     0.018 C 
ATOM     53  H33 non d ame      -9.809   4.944  70.805  0.00  0.00     0.048 H 
ATOM     54  H34 non d ame     -10.343   6.296  69.599  0.00  0.00     0.048 H 
BRANCH  52  55
ATOM     55  C23 non d ame      -8.793   4.994  68.934  0.00  0.00     0.259 C 
ATOM     56  O7  non d ame      -8.229   3.969  69.139  0.00  0.00    -0.265 OA
BRANCH  55  57
ATOM     57  O8  non d ame      -8.766   5.578  67.638  0.00  0.00    -0.317 OA
BRANCH  57  58
ATOM     58  C29 non d ame      -8.932   4.639  66.571  0.00  0.00     0.052 C 
ATOM     59  H47 non d ame      -8.542   3.694  66.947  0.00  0.00     0.082 H 
ATOM     60  H48 non d ame      -9.976   4.717  66.270  0.00  0.00     0.082 H 
BRANCH  58  61
ATOM     61  C35 non d ame      -8.044   5.100  65.385  0.00  0.00    -0.034 A 
ATOM     62  C30 non d ame      -6.703   5.404  65.595  0.00  0.00    -0.075 A 
ATOM     63  C31 non d ame      -5.905   5.818  64.530  0.00  0.00    -0.082 A 
ATOM     64  H49 non d ame      -6.277   5.318  66.594  0.00  0.00     0.084 H 
ATOM     65  C32 non d ame      -6.454   5.930  63.250  0.00  0.00    -0.083 A 
ATOM     66  H50 non d ame      -4.855   6.054  64.698  0.00  0.00     0.083 H 
ATOM     67  C33 non d ame      -7.794   5.629  63.044  0.00  0.00    -0.082 A 
ATOM     68  H51 non d ame      -5.838   6.253  62.411  0.00  0.00     0.083 H 
ATOM     69  C34 non d ame      -8.594   5.212  64.107  0.00  0.00    -0.075 A 
ATOM     70  H52 non d ame      -8.220   5.719  62.045  0.00  0.00     0.083 H 
ATOM     71  H53 non d ame      -9.646   4.976  63.937  0.00  0.00     0.084 H 
ENDBRANCH  58  61
ENDBRANCH  57  58
ENDBRANCH  55  57
ENDBRANCH  52  55
ENDBRANCH  49  52
ENDBRANCH  47  49
BRANCH  47  72
ATOM     72  C24 non d ame     -10.011   8.670  71.689  0.00  0.00    -0.039 C 
ATOM     73  H35 non d ame      -9.877   7.964  72.509  0.00  0.00     0.036 H 
ATOM     74  H36 non d ame      -9.757   9.721  71.828  0.00  0.00     0.036 H 
BRANCH  72  75
ATOM     75  C25 non d ame     -11.555   8.610  71.263  0.00  0.00    -0.001 C 
ATOM     76  C26 non d ame     -12.169  10.132  71.165  0.00  0.00    -0.035 C 
ATOM     77  C27 non d ame     -13.308  10.191  71.894  0.00  0.00     0.085 C 
ATOM     78  H38 non d ame     -11.507  10.835  71.671  0.00  0.00     0.036 H 
ATOM     79  H39 non d ame     -12.505  10.336  70.148  0.00  0.00     0.036 H 
ATOM     80  N5  non d ame     -13.355   8.944  72.743  0.00  0.00    -0.049 N 
ATOM     81  H40 non d ame     -13.195  11.059  72.544  0.00  0.00     0.075 H 
ATOM     82  H41 non d ame     -14.120  10.156  71.168  0.00  0.00     0.075 H 
ATOM     83  C28 non d ame     -12.251   7.942  72.121  0.00  0.00     0.193 C 
ATOM     84  H42 non d ame     -13.056   9.216  73.669  0.00  0.00     0.280 HD
ATOM     85  H43 non d ame     -14.269   8.538  72.607  0.00  0.00     0.280 HD
ATOM     86  H44 non d ame     -12.557   7.092  71.511  0.00  0.00     0.129 H 
ATOM     87  H37 non d ame     -11.722   7.952  70.410  0.00  0.00     0.046 H 
BRANCH  83  88
ATOM     88  O6  non d ame     -11.442   7.393  73.162  0.00  0.00    -0.369 OA
ATOM     89  H45 non d ame     -11.815   6.557  73.450  0.00  0.00     0.212 HD
ENDBRANCH  83  88
ENDBRANCH  72  75
ENDBRANCH  47  72
ENDBRANCH  45  47
ENDBRANCH   1  43
BRANCH   1  90
ATOM     90  C16 non d ame      -9.194   8.457  65.750  0.00  0.00    -0.035 C 
ATOM     91  H21 non d ame      -8.465   7.861  66.299  0.00  0.00     0.037 H 
ATOM     92  H22 non d ame      -9.926   7.967  65.108  0.00  0.00     0.037 H 
BRANCH  90  93
ATOM     93  C17 non d ame      -8.375   9.419  64.832  0.00  0.00    -0.059 C 
ATOM     94  H23 non d ame      -8.689  10.438  65.057  0.00  0.00     0.038 H 
BRANCH  93  95
ATOM     95  C18 non d ame      -6.839   9.323  65.099  0.00  0.00    -0.073 C 
ATOM     96  H24 non d ame      -6.655   9.343  66.173  0.00  0.00     0.028 H 
ATOM     97  H25 non d ame      -6.455   8.392  64.682  0.00  0.00     0.028 H 
ATOM     98  H26 non d ame      -6.335  10.167  64.627  0.00  0.00     0.028 H 
ENDBRANCH  93  95
BRANCH  93  99
ATOM     99  C19 non d ame      -8.689   9.164  63.355  0.00  0.00    -0.073 C 
ATOM    100  H27 non d ame      -9.379   8.324  63.271  0.00  0.00     0.028 H 
ATOM    101  H28 non d ame      -9.144  10.054  62.921  0.00  0.00     0.028 H 
ATOM    102  H29 non d ame      -7.767   8.931  62.823  0.00  0.00     0.028 H 
ENDBRANCH  93  99
ENDBRANCH  90  93
ENDBRANCH   1  90
TORSDOF 26
ENDMDL
MODEL 2
REMARK VINA RESULT:      -6.5      1.969      3.339
REMARK  26 active torsions:
REMARK  status: ('A' for Active; 'I' for Inactive)
REMARK    1  A    between atoms: C2_2  and  C3_3 
REMARK    2  A    between atoms: C4_6  and  C5_7 
REMARK       I    between atoms: C5_7  and  N2_9 
REMARK    3  A    between atoms: N2_9  and  C6_10 
REMARK    4  A    between atoms: C6_10  and  C7_11 
REMARK    5  A    between atoms: C6_10  and  C8_13 
REMARK       I    between atoms: C7_11  and  N3_14 
REMARK    6  A    between atoms: N3_14  and  C9_15 
REMARK    7  A    between atoms: C9_15  and  C10_16 
REMARK    8  A    between atoms: C9_15  and  C11_18 
REMARK       I    between atoms: C10_16  and  N4_21 
REMARK    9  A    between atoms: C11_18  and  C12_19 
REMARK   10  A    between atoms: C11_18  and  C13_20 
REMARK   11  A    between atoms: N4_21  and  C14_22 
REMARK   12  A    between atoms: C14_22  and  C15_23 
REMARK   13  A    between atoms: C14_22  and  C16_25 
REMARK       I    between atoms: C15_23  and  N6_40 
REMARK   14  A    between atoms: C16_25  and  C17_26 
REMARK   15  A    between atoms: C17_26  and  C18_27 
REMARK   16  A    between atoms: C17_26  and  C19_28 
REMARK   17  A    between atoms: C20_29  and  C21_30 
REMARK   18  A    between atoms: C20_29  and  C24_33 
REMARK   19  A    between atoms: C20_29  and  N6_40 
REMARK   20  A    between atoms: C21_30  and  C22_31 
REMARK   21  A    between atoms: C22_31  and  C23_32 
REMARK   22  A    between atoms: C23_32  and  O8_43 
REMARK   23  A    between atoms: C24_33  and  C25_34 
REMARK   24  A    between atoms: C28_38  and  O6_39 
REMARK   25  A    between atoms: C29_42  and  O8_43 
REMARK   26  A    between atoms: C29_42  and  C35_49 
ROOT
ATOM      1  C14 non d ame     -10.123   9.401  66.675  0.00  0.00     0.089 C 
ATOM      2  H20 non d ame     -11.038   8.821  66.791  0.00  0.00     0.087 H 
ENDROOT
BRANCH   1   3
ATOM      3  N4  non d ame     -10.491  10.700  66.131  0.00  0.00    -0.346 N 
ATOM      4  C10 non d ame     -11.562  11.528  66.796  0.00  0.00     0.241 C 
ATOM      5  O4  non d ame     -12.115  11.127  67.767  0.00  0.00    -0.271 OA
ATOM      6  H19 non d ame     -10.011  11.021  65.302  0.00  0.00     0.163 HD
BRANCH   4   7
ATOM      7  C9  non d ame     -11.928  12.872  66.222  0.00  0.00     0.092 C 
ATOM      8  H11 non d ame     -13.013  12.967  66.194  0.00  0.00     0.088 H 
BRANCH   7   9
ATOM      9  N3  non d ame     -11.423  13.932  67.100  0.00  0.00    -0.346 N 
ATOM     10  C7  non d ame     -10.021  13.988  67.432  0.00  0.00     0.240 C 
ATOM     11  O3  non d ame      -9.284  13.186  67.003  0.00  0.00    -0.271 OA
ATOM     12  H10 non d ame     -12.048  14.629  67.480  0.00  0.00     0.163 HD
BRANCH  10  13
ATOM     13  C6  non d ame      -9.492  15.117  68.370  0.00  0.00     0.086 C 
ATOM     14  H6  non d ame      -9.687  16.116  67.980  0.00  0.00     0.086 H 
BRANCH  13  15
ATOM     15  N2  non d ame     -10.179  15.028  69.648  0.00  0.00    -0.343 N 
ATOM     16  C5  non d ame     -11.413  15.790  69.857  0.00  0.00     0.273 C 
ATOM     17  O2  non d ame     -11.842  16.472  68.993  0.00  0.00    -0.266 OA
ATOM     18  H5  non d ame      -9.805  14.445  70.382  0.00  0.00     0.163 HD
BRANCH  16  19
ATOM     19  C4  non d ame     -12.151  15.705  71.202  0.00  0.00     0.154 A 
ATOM     20  C1  non d ame     -11.597  15.903  72.507  0.00  0.00    -0.017 A 
ATOM     21  C2  non d ame     -12.680  15.715  73.394  0.00  0.00     0.077 A 
ATOM     22  H1  non d ame     -10.567  16.147  72.770  0.00  0.00     0.091 H 
ATOM     23  O1  non d ame     -13.729  15.442  72.674  0.00  0.00    -0.218 OA
ATOM     24  N1  non d ame     -13.445  15.430  71.391  0.00  0.00    -0.123 NA
BRANCH  21  25
ATOM     25  C3  non d ame     -12.629  15.815  74.913  0.00  0.00    -0.029 C 
ATOM     26  H2  non d ame     -13.632  15.999  75.300  0.00  0.00     0.036 H 
ATOM     27  H3  non d ame     -12.247  14.881  75.325  0.00  0.00     0.036 H 
ATOM     28  H4  non d ame     -11.972  16.635  75.202  0.00  0.00     0.036 H 
ENDBRANCH  21  25
ENDBRANCH  16  19
ENDBRANCH  13  15
BRANCH  13  29
ATOM     29  C8  non d ame      -8.007  14.953  68.571  0.00  0.00    -0.049 C 
ATOM     30  H7  non d ame      -7.806  13.980  69.019  0.00  0.00     0.030 H 
ATOM     31  H8  non d ame      -7.501  15.021  67.607  0.00  0.00     0.030 H 
ATOM     32  H9  non d ame      -7.641  15.738  69.230  0.00  0.00     0.030 H 
ENDBRANCH  13  29
ENDBRANCH  10  13
ENDBRANCH   7   9
BRANCH   7  33
ATOM     33  C11 non d ame     -11.290  13.024  64.810  0.00  0.00    -0.033 C 
ATOM     34  H12 non d ame     -10.267  12.652  64.869  0.00  0.00     0.042 H 
BRANCH  33  35
ATOM     35  C12 non d ame     -12.043  12.160  63.751  0.00  0.00    -0.071 C 
ATOM     36  H13 non d ame     -13.111  12.368  63.804  0.00  0.00     0.028 H 
ATOM     37  H14 non d ame     -11.675  12.404  62.754  0.00  0.00     0.028 H 
ATOM     38  H15 non d ame     -11.867  11.104  63.953  0.00  0.00     0.028 H 
ENDBRANCH  33  35
BRANCH  33  39
ATOM     39  C13 non d ame     -11.236  14.525  64.381  0.00  0.00    -0.071 C 
ATOM     40  H16 non d ame     -11.728  15.137  65.136  0.00  0.00     0.028 H 
ATOM     41  H17 non d ame     -10.196  14.837  64.280  0.00  0.00     0.028 H 
ATOM     42  H18 non d ame     -11.746  14.648  63.425  0.00  0.00     0.028 H 
ENDBRANCH  33  39
ENDBRANCH   7  33
ENDBRANCH   4   7
ENDBRANCH   1   3
BRANCH   1  43
ATOM     43  C15 non d ame      -9.392   9.622  68.031  0.00  0.00     0.240 C 
ATOM     44  O5  non d ame      -8.509  10.417  68.104  0.00  0.00    -0.271 OA
ATOM     45  N6  non d ame      -9.796   8.851  69.240  0.00  0.00    -0.355 N 
ATOM     46  H46 non d ame     -10.547   8.177  69.191  0.00  0.00     0.162 HD
BRANCH  45  47
ATOM     47  C20 non d ame      -9.092   9.074  70.521  0.00  0.00     0.013 C 
ATOM     48  H30 non d ame      -8.737  10.104  70.534  0.00  0.00     0.072 H 
BRANCH  47  49
ATOM     49  C21 non d ame      -7.921   8.122  70.620  0.00  0.00    -0.038 C 
ATOM     50  H31 non d ame      -7.311   8.313  69.737  0.00  0.00     0.036 H 
ATOM     51  H32 non d ame      -7.503   8.275  71.616  0.00  0.00     0.036 H 
BRANCH  49  52
ATOM     52  C22 non d ame      -8.345   6.640  70.547  0.00  0.00     0.018 C 
ATOM     53  H33 non d ame      -7.877   6.156  71.405  0.00  0.00     0.048 H 
ATOM     54  H34 non d ame      -9.431   6.647  70.451  0.00  0.00     0.048 H 
BRANCH  52  55
ATOM     55  C23 non d ame      -7.808   5.897  69.293  0.00  0.00     0.259 C 
ATOM     56  O7  non d ame      -6.933   5.099  69.393  0.00  0.00    -0.265 OA
BRANCH  55  57
ATOM     57  O8  non d ame      -8.365   6.190  68.017  0.00  0.00    -0.317 OA
BRANCH  57  58
ATOM     58  C29 non d ame      -8.519   5.047  67.171  0.00  0.00     0.052 C 
ATOM     59  H47 non d ame      -7.918   4.260  67.625  0.00  0.00     0.082 H 
ATOM     60  H48 non d ame      -9.594   4.911  67.052  0.00  0.00     0.082 H 
BRANCH  58  61
ATOM     61  C35 non d ame      -7.912   5.391  65.785  0.00  0.00    -0.034 A 
ATOM     62  C30 non d ame      -6.631   5.927  65.700  0.00  0.00    -0.075 A 
ATOM     63  C31 non d ame      -6.085   6.237  64.455  0.00  0.00    -0.082 A 
ATOM     64  H49 non d ame      -6.055   6.105  66.607  0.00  0.00     0.084 H 
ATOM     65  C32 non d ame      -6.827   6.010  63.292  0.00  0.00    -0.083 A 
ATOM     66  H50 non d ame      -5.081   6.655  64.392  0.00  0.00     0.083 H 
ATOM     67  C33 non d ame      -8.106   5.478  63.382  0.00  0.00    -0.082 A 
ATOM     68  H51 non d ame      -6.408   6.249  62.315  0.00  0.00     0.083 H 
ATOM     69  C34 non d ame      -8.654   5.165  64.625  0.00  0.00    -0.075 A 
ATOM     70  H52 non d ame      -8.683   5.305  62.473  0.00  0.00     0.083 H 
ATOM     71  H53 non d ame      -9.660   4.746  64.687  0.00  0.00     0.084 H 
ENDBRANCH  58  61
ENDBRANCH  57  58
ENDBRANCH  55  57
ENDBRANCH  52  55
ENDBRANCH  49  52
ENDBRANCH  47  49
BRANCH  47  72
ATOM     72  C24 non d ame     -10.049   8.828  71.685  0.00  0.00    -0.039 C 
ATOM     73  H35 non d ame      -9.805   7.832  72.057  0.00  0.00     0.036 H 
ATOM     74  H36 non d ame      -9.941   9.694  72.338  0.00  0.00     0.036 H 
BRANCH  72  75
ATOM     75  C25 non d ame     -11.576   8.790  71.200  0.00  0.00    -0.001 C 
ATOM     76  C26 non d ame     -12.205  10.309  71.207  0.00  0.00    -0.035 C 
ATOM     77  C27 non d ame     -13.370  10.296  71.897  0.00  0.00     0.085 C 
ATOM     78  H38 non d ame     -11.569  10.973  71.793  0.00  0.00     0.036 H 
ATOM     79  H39 non d ame     -12.508  10.593  70.199  0.00  0.00     0.036 H 
ATOM     80  N5  non d ame     -13.431   8.982  72.637  0.00  0.00    -0.049 N 
ATOM     81  H40 non d ame     -13.290  11.108  72.620  0.00  0.00     0.075 H 
ATOM     82  H41 non d ame     -14.155  10.314  71.141  0.00  0.00     0.075 H 
ATOM     83  C28 non d ame     -12.294   8.046  71.974  0.00  0.00     0.193 C 
ATOM     84  H42 non d ame     -13.168   9.179  73.592  0.00  0.00     0.280 HD
ATOM     85  H43 non d ame     -14.335   8.580  72.435  0.00  0.00     0.280 HD
ATOM     86  H44 non d ame     -12.567   7.247  71.285  0.00  0.00     0.129 H 
ATOM     87  H37 non d ame     -11.705   8.204  70.290  0.00  0.00     0.046 H 
BRANCH  83  88
ATOM     88  O6  non d ame     -11.515   7.420  72.995  0.00  0.00    -0.369 OA
ATOM     89  H45 non d ame     -11.461   6.477  72.823  0.00  0.00     0.212 HD
ENDBRANCH  83  88
ENDBRANCH  72  75
ENDBRANCH  47  72
ENDBRANCH  45  47
ENDBRANCH   1  43
BRANCH   1  90
ATOM     90  C16 non d ame      -9.189   8.701  65.700  0.00  0.00    -0.035 C 
ATOM     91  H21 non d ame      -8.393   8.280  66.314  0.00  0.00     0.037 H 
ATOM     92  H22 non d ame      -9.828   8.043  65.112  0.00  0.00     0.037 H 
BRANCH  90  93
ATOM     93  C17 non d ame      -8.500   9.669  64.687  0.00  0.00    -0.059 C 
ATOM     94  H23 non d ame      -8.960  10.650  64.803  0.00  0.00     0.038 H 
BRANCH  93  95
ATOM     95  C18 non d ame      -6.971   9.823  64.965  0.00  0.00    -0.073 C 
ATOM     96  H24 non d ame      -6.409   9.236  64.239  0.00  0.00     0.028 H 
ATOM     97  H25 non d ame      -6.690  10.873  64.878  0.00  0.00     0.028 H 
ATOM     98  H26 non d ame      -6.747   9.470  65.971  0.00  0.00     0.028 H 
ENDBRANCH  93  95
BRANCH  93  99
ATOM     99  C19 non d ame      -8.749   9.218  63.245  0.00  0.00    -0.073 C 
ATOM    100  H27 non d ame      -9.813   9.031  63.102  0.00  0.00     0.028 H 
ATOM    101  H28 non d ame      -8.422  10.000  62.559  0.00  0.00     0.028 H 
ATOM    102  H29 non d ame      -8.190   8.304  63.049  0.00  0.00     0.028 H 
ENDBRANCH  93  99
ENDBRANCH  90  93
ENDBRANCH   1  90
TORSDOF 26
ENDMDL
MODEL 3
REMARK VINA RESULT:      -6.5      2.508      9.775
REMARK  26 active torsions:
REMARK  status: ('A' for Active; 'I' for Inactive)
REMARK    1  A    between atoms: C2_2  and  C3_3 
REMARK    2  A    between atoms: C4_6  and  C5_7 
REMARK       I    between atoms: C5_7  and  N2_9 
REMARK    3  A    between atoms: N2_9  and  C6_10 
REMARK    4  A    between atoms: C6_10  and  C7_11 
REMARK    5  A    between atoms: C6_10  and  C8_13 
REMARK       I    between atoms: C7_11  and  N3_14 
REMARK    6  A    between atoms: N3_14  and  C9_15 
REMARK    7  A    between atoms: C9_15  and  C10_16 
REMARK    8  A    between atoms: C9_15  and  C11_18 
REMARK       I    between atoms: C10_16  and  N4_21 
REMARK    9  A    between atoms: C11_18  and  C12_19 
REMARK   10  A    between atoms: C11_18  and  C13_20 
REMARK   11  A    between atoms: N4_21  and  C14_22 
REMARK   12  A    between atoms: C14_22  and  C15_23 
REMARK   13  A    between atoms: C14_22  and  C16_25 
REMARK       I    between atoms: C15_23  and  N6_40 
REMARK   14  A    between atoms: C16_25  and  C17_26 
REMARK   15  A    between atoms: C17_26  and  C18_27 
REMARK   16  A    between atoms: C17_26  and  C19_28 
REMARK   17  A    between atoms: C20_29  and  C21_30 
REMARK   18  A    between atoms: C20_29  and  C24_33 
REMARK   19  A    between atoms: C20_29  and  N6_40 
REMARK   20  A    between atoms: C21_30  and  C22_31 
REMARK   21  A    between atoms: C22_31  and  C23_32 
REMARK   22  A    between atoms: C23_32  and  O8_43 
REMARK   23  A    between atoms: C24_33  and  C25_34 
REMARK   24  A    between atoms: C28_38  and  O6_39 
REMARK   25  A    between atoms: C29_42  and  O8_43 
REMARK   26  A    between atoms: C29_42  and  C35_49 
ROOT
ATOM      1  C14 non d ame     -10.854   8.977  69.426  0.00  0.00     0.089 C 
ATOM      2  H20 non d ame     -11.910   8.714  69.361  0.00  0.00     0.087 H 
ENDROOT
BRANCH   1   3
ATOM      3  N4  non d ame     -10.086   7.752  69.261  0.00  0.00    -0.346 N 
ATOM      4  C10 non d ame     -10.748   6.408  69.436  0.00  0.00     0.241 C 
ATOM      5  O4  non d ame     -11.900   6.338  69.712  0.00  0.00    -0.271 OA
ATOM      6  H19 non d ame      -9.106   7.833  69.029  0.00  0.00     0.163 HD
BRANCH   4   7
ATOM      7  C9  non d ame      -9.939   5.151  69.256  0.00  0.00     0.092 C 
ATOM      8  H11 non d ame     -10.598   4.343  68.939  0.00  0.00     0.088 H 
BRANCH   7   9
ATOM      9  N3  non d ame      -8.954   5.351  68.189  0.00  0.00    -0.346 N 
ATOM     10  C7  non d ame      -8.915   4.448  67.065  0.00  0.00     0.240 C 
ATOM     11  O3  non d ame      -9.668   3.553  67.005  0.00  0.00    -0.271 OA
ATOM     12  H10 non d ame      -8.298   6.117  68.228  0.00  0.00     0.163 HD
BRANCH  10  13
ATOM     13  C6  non d ame      -7.863   4.664  65.934  0.00  0.00     0.086 C 
ATOM     14  H6  non d ame      -8.080   4.083  65.038  0.00  0.00     0.086 H 
BRANCH  13  15
ATOM     15  N2  non d ame      -7.879   6.062  65.537  0.00  0.00    -0.343 N 
ATOM     16  C5  non d ame      -7.630   6.417  64.138  0.00  0.00     0.273 C 
ATOM     17  O2  non d ame      -7.416   5.571  63.341  0.00  0.00    -0.266 OA
ATOM     18  H5  non d ame      -8.060   6.779  66.225  0.00  0.00     0.163 HD
BRANCH  16  19
ATOM     19  C4  non d ame      -7.646   7.891  63.703  0.00  0.00     0.154 A 
ATOM     20  C1  non d ame      -7.785   8.399  62.372  0.00  0.00    -0.017 A 
ATOM     21  C2  non d ame      -7.737   9.804  62.512  0.00  0.00     0.077 A 
ATOM     22  H1  non d ame      -7.901   7.834  61.447  0.00  0.00     0.091 H 
ATOM     23  O1  non d ame      -7.591  10.063  63.779  0.00  0.00    -0.218 OA
ATOM     24  N1  non d ame      -7.534   8.962  64.494  0.00  0.00    -0.123 NA
BRANCH  21  25
ATOM     25  C3  non d ame      -7.842  10.825  61.388  0.00  0.00    -0.029 C 
ATOM     26  H2  non d ame      -6.897  10.867  60.844  0.00  0.00     0.036 H 
ATOM     27  H3  non d ame      -8.640  10.534  60.706  0.00  0.00     0.036 H 
ATOM     28  H4  non d ame      -8.063  11.807  61.807  0.00  0.00     0.036 H 
ENDBRANCH  21  25
ENDBRANCH  16  19
ENDBRANCH  13  15
BRANCH  13  29
ATOM     29  C8  non d ame      -6.493   4.287  66.439  0.00  0.00    -0.049 C 
ATOM     30  H7  non d ame      -6.083   5.108  67.027  0.00  0.00     0.030 H 
ATOM     31  H8  non d ame      -6.569   3.395  67.063  0.00  0.00     0.030 H 
ATOM     32  H9  non d ame      -5.837   4.084  65.593  0.00  0.00     0.030 H 
ENDBRANCH  13  29
ENDBRANCH  10  13
ENDBRANCH   7   9
BRANCH   7  33
ATOM     33  C11 non d ame      -9.200   4.815  70.585  0.00  0.00    -0.033 C 
ATOM     34  H12 non d ame      -8.692   3.860  70.445  0.00  0.00     0.042 H 
BRANCH  33  35
ATOM     35  C12 non d ame      -8.110   5.882  70.914  0.00  0.00    -0.071 C 
ATOM     36  H13 non d ame      -7.674   6.254  69.987  0.00  0.00     0.028 H 
ATOM     37  H14 non d ame      -8.565   6.710  71.459  0.00  0.00     0.028 H 
ATOM     38  H15 non d ame      -7.332   5.429  71.527  0.00  0.00     0.028 H 
ENDBRANCH  33  35
BRANCH  33  39
ATOM     39  C13 non d ame     -10.213   4.656  71.763  0.00  0.00    -0.071 C 
ATOM     40  H16 non d ame     -11.199   4.989  71.442  0.00  0.00     0.028 H 
ATOM     41  H17 non d ame     -10.261   3.609  72.063  0.00  0.00     0.028 H 
ATOM     42  H18 non d ame      -9.883   5.261  72.608  0.00  0.00     0.028 H 
ENDBRANCH  33  39
ENDBRANCH   7  33
ENDBRANCH   4   7
ENDBRANCH   1   3
BRANCH   1  43
ATOM     43  C15 non d ame     -10.430   9.981  68.316  0.00  0.00     0.240 C 
ATOM     44  O5  non d ame      -9.851   9.589  67.354  0.00  0.00    -0.271 OA
ATOM     45  N6  non d ame     -10.752  11.430  68.447  0.00  0.00    -0.355 N 
ATOM     46  H46 non d ame     -11.247  11.774  69.257  0.00  0.00     0.162 HD
BRANCH  45  47
ATOM     47  C20 non d ame     -10.343  12.371  67.383  0.00  0.00     0.013 C 
ATOM     48  H30 non d ame      -9.773  11.811  66.641  0.00  0.00     0.072 H 
BRANCH  47  49
ATOM     49  C21 non d ame      -9.480  13.459  67.982  0.00  0.00    -0.038 C 
ATOM     50  H31 non d ame      -9.962  13.733  68.921  0.00  0.00     0.036 H 
ATOM     51  H32 non d ame      -8.465  13.062  67.984  0.00  0.00     0.036 H 
BRANCH  49  52
ATOM     52  C22 non d ame      -9.445  14.739  67.119  0.00  0.00     0.018 C 
ATOM     53  H33 non d ame      -8.390  14.939  66.929  0.00  0.00     0.048 H 
ATOM     54  H34 non d ame     -10.123  14.553  66.286  0.00  0.00     0.048 H 
BRANCH  52  55
ATOM     55  C23 non d ame      -9.993  15.999  67.845  0.00  0.00     0.259 C 
ATOM     56  O7  non d ame      -9.426  17.039  67.758  0.00  0.00    -0.265 OA
BRANCH  55  57
ATOM     57  O8  non d ame     -11.175  15.893  68.629  0.00  0.00    -0.317 OA
BRANCH  57  58
ATOM     58  C29 non d ame     -11.023  16.344  69.978  0.00  0.00     0.052 C 
ATOM     59  H47 non d ame      -9.970  16.204  70.220  0.00  0.00     0.082 H 
ATOM     60  H48 non d ame     -11.460  17.342  70.006  0.00  0.00     0.082 H 
BRANCH  58  61
ATOM     61  C35 non d ame     -11.864  15.414  70.892  0.00  0.00    -0.034 A 
ATOM     62  C30 non d ame     -12.292  15.863  72.137  0.00  0.00    -0.075 A 
ATOM     63  C31 non d ame     -13.048  15.028  72.959  0.00  0.00    -0.082 A 
ATOM     64  H49 non d ame     -12.034  16.868  72.470  0.00  0.00     0.084 H 
ATOM     65  C32 non d ame     -13.375  13.739  72.531  0.00  0.00    -0.083 A 
ATOM     66  H50 non d ame     -13.382  15.383  73.933  0.00  0.00     0.083 H 
ATOM     67  C33 non d ame     -12.943  13.293  71.289  0.00  0.00    -0.082 A 
ATOM     68  H51 non d ame     -13.965  13.079  73.167  0.00  0.00     0.083 H 
ATOM     69  C34 non d ame     -12.189  14.126  70.464  0.00  0.00    -0.075 A 
ATOM     70  H52 non d ame     -13.198  12.286  70.959  0.00  0.00     0.083 H 
ATOM     71  H53 non d ame     -11.855  13.769  69.488  0.00  0.00     0.084 H 
ENDBRANCH  58  61
ENDBRANCH  57  58
ENDBRANCH  55  57
ENDBRANCH  52  55
ENDBRANCH  49  52
ENDBRANCH  47  49
BRANCH  47  72
ATOM     72  C24 non d ame     -11.580  12.995  66.742  0.00  0.00    -0.039 C 
ATOM     73  H35 non d ame     -12.379  12.874  67.473  0.00  0.00     0.036 H 
ATOM     74  H36 non d ame     -11.274  13.995  66.431  0.00  0.00     0.036 H 
BRANCH  72  75
ATOM     75  C25 non d ame     -12.024  12.206  65.420  0.00  0.00    -0.001 C 
ATOM     76  C26 non d ame     -10.712  11.514  64.712  0.00  0.00    -0.035 C 
ATOM     77  C27 non d ame     -10.687  11.861  63.403  0.00  0.00     0.085 C 
ATOM     78  H38 non d ame      -9.797  11.954  65.109  0.00  0.00     0.036 H 
ATOM     79  H39 non d ame     -10.828  10.430  64.687  0.00  0.00     0.036 H 
ATOM     80  N5  non d ame     -11.676  12.988  63.227  0.00  0.00    -0.049 N 
ATOM     81  H40 non d ame      -9.681  12.239  63.220  0.00  0.00     0.075 H 
ATOM     82  H41 non d ame     -11.048  10.986  62.863  0.00  0.00     0.075 H 
ATOM     83  C28 non d ame     -12.579  13.001  64.566  0.00  0.00     0.193 C 
ATOM     84  H42 non d ame     -11.136  13.841  63.196  0.00  0.00     0.280 HD
ATOM     85  H43 non d ame     -12.263  12.734  62.446  0.00  0.00     0.280 HD
ATOM     86  H44 non d ame     -13.594  12.602  64.553  0.00  0.00     0.129 H 
ATOM     87  H37 non d ame     -12.890  11.567  65.593  0.00  0.00     0.046 H 
BRANCH  83  88
ATOM     88  O6  non d ame     -12.698  14.333  65.066  0.00  0.00    -0.369 OA
ATOM     89  H45 non d ame     -11.823  14.708  65.188  0.00  0.00     0.212 HD
ENDBRANCH  83  88
ENDBRANCH  72  75
ENDBRANCH  47  72
ENDBRANCH  45  47
ENDBRANCH   1  43
BRANCH   1  90
ATOM     90  C16 non d ame     -10.555   9.571  70.794  0.00  0.00    -0.035 C 
ATOM     91  H21 non d ame      -9.721   8.988  71.185  0.00  0.00     0.037 H 
ATOM     92  H22 non d ame     -10.441  10.641  70.625  0.00  0.00     0.037 H 
BRANCH  90  93
ATOM     93  C17 non d ame     -11.724   9.407  71.817  0.00  0.00    -0.059 C 
ATOM     94  H23 non d ame     -11.638  10.211  72.547  0.00  0.00     0.038 H 
BRANCH  93  95
ATOM     95  C18 non d ame     -13.124   9.527  71.137  0.00  0.00    -0.073 C 
ATOM     96  H24 non d ame     -13.376  10.580  71.006  0.00  0.00     0.028 H 
ATOM     97  H25 non d ame     -13.099   9.037  70.164  0.00  0.00     0.028 H 
ATOM     98  H26 non d ame     -13.876   9.048  71.765  0.00  0.00     0.028 H 
ENDBRANCH  93  95
BRANCH  93  99
ATOM     99  C19 non d ame     -11.600   8.086  72.581  0.00  0.00    -0.073 C 
ATOM    100  H27 non d ame     -11.446   7.271  71.873  0.00  0.00     0.028 H 
ATOM    101  H28 non d ame     -10.752   8.139  73.264  0.00  0.00     0.028 H 
ATOM    102  H29 non d ame     -12.513   7.907  73.148  0.00  0.00     0.028 H 
ENDBRANCH  93  99
ENDBRANCH  90  93
ENDBRANCH   1  90
TORSDOF 26
ENDMDL
MODEL 4
REMARK VINA RESULT:      -6.3      3.413      8.452
REMARK  26 active torsions:
REMARK  status: ('A' for Active; 'I' for Inactive)
REMARK    1  A    between atoms: C2_2  and  C3_3 
REMARK    2  A    between atoms: C4_6  and  C5_7 
REMARK       I    between atoms: C5_7  and  N2_9 
REMARK    3  A    between atoms: N2_9  and  C6_10 
REMARK    4  A    between atoms: C6_10  and  C7_11 
REMARK    5  A    between atoms: C6_10  and  C8_13 
REMARK       I    between atoms: C7_11  and  N3_14 
REMARK    6  A    between atoms: N3_14  and  C9_15 
REMARK    7  A    between atoms: C9_15  and  C10_16 
REMARK    8  A    between atoms: C9_15  and  C11_18 
REMARK       I    between atoms: C10_16  and  N4_21 
REMARK    9  A    between atoms: C11_18  and  C12_19 
REMARK   10  A    between atoms: C11_18  and  C13_20 
REMARK   11  A    between atoms: N4_21  and  C14_22 
REMARK   12  A    between atoms: C14_22  and  C15_23 
REMARK   13  A    between atoms: C14_22  and  C16_25 
REMARK       I    between atoms: C15_23  and  N6_40 
REMARK   14  A    between atoms: C16_25  and  C17_26 
REMARK   15  A    between atoms: C17_26  and  C18_27 
REMARK   16  A    between atoms: C17_26  and  C19_28 
REMARK   17  A    between atoms: C20_29  and  C21_30 
REMARK   18  A    between atoms: C20_29  and  C24_33 
REMARK   19  A    between atoms: C20_29  and  N6_40 
REMARK   20  A    between atoms: C21_30  and  C22_31 
REMARK   21  A    between atoms: C22_31  and  C23_32 
REMARK   22  A    between atoms: C23_32  and  O8_43 
REMARK   23  A    between atoms: C24_33  and  C25_34 
REMARK   24  A    between atoms: C28_38  and  O6_39 
REMARK   25  A    between atoms: C29_42  and  O8_43 
REMARK   26  A    between atoms: C29_42  and  C35_49 
ROOT
ATOM      1  C14 non d ame      -8.080   8.840  64.206  0.00  0.00     0.089 C 
ATOM      2  H20 non d ame      -6.995   8.759  64.149  0.00  0.00     0.087 H 
ENDROOT
BRANCH   1   3
ATOM      3  N4  non d ame      -8.597   7.539  64.605  0.00  0.00    -0.346 N 
ATOM      4  C10 non d ame      -7.705   6.323  64.574  0.00  0.00     0.241 C 
ATOM      5  O4  non d ame      -6.575   6.417  64.221  0.00  0.00    -0.271 OA
ATOM      6  H19 non d ame      -9.562   7.481  64.900  0.00  0.00     0.163 HD
BRANCH   4   7
ATOM      7  C9  non d ame      -8.254   4.986  64.996  0.00  0.00     0.092 C 
ATOM      8  H11 non d ame      -7.513   4.213  64.792  0.00  0.00     0.088 H 
BRANCH   7   9
ATOM      9  N3  non d ame      -8.489   4.989  66.443  0.00  0.00    -0.346 N 
ATOM     10  C7  non d ame      -7.643   4.210  67.313  0.00  0.00     0.240 C 
ATOM     11  O3  non d ame      -6.769   3.573  66.865  0.00  0.00    -0.271 OA
ATOM     12  H10 non d ame      -9.241   5.531  66.843  0.00  0.00     0.163 HD
BRANCH  10  13
ATOM     13  C6  non d ame      -7.901   4.214  68.851  0.00  0.00     0.086 C 
ATOM     14  H6  non d ame      -7.131   3.682  69.410  0.00  0.00     0.086 H 
BRANCH  13  15
ATOM     15  N2  non d ame      -7.886   5.587  69.327  0.00  0.00    -0.343 N 
ATOM     16  C5  non d ame      -6.634   6.167  69.818  0.00  0.00     0.273 C 
ATOM     17  O2  non d ame      -5.645   5.520  69.828  0.00  0.00    -0.266 OA
ATOM     18  H5  non d ame      -8.736   6.133  69.318  0.00  0.00     0.163 HD
BRANCH  16  19
ATOM     19  C4  non d ame      -6.603   7.618  70.323  0.00  0.00     0.154 A 
ATOM     20  C1  non d ame      -6.274   8.789  69.568  0.00  0.00    -0.017 A 
ATOM     21  C2  non d ame      -6.394   9.858  70.484  0.00  0.00     0.077 A 
ATOM     22  H1  non d ame      -5.991   8.853  68.517  0.00  0.00     0.091 H 
ATOM     23  O1  non d ame      -6.752   9.350  71.627  0.00  0.00    -0.218 OA
ATOM     24  N1  non d ame      -6.880   8.045  71.558  0.00  0.00    -0.123 NA
BRANCH  21  25
ATOM     25  C3  non d ame      -6.151  11.331  70.186  0.00  0.00    -0.029 C 
ATOM     26  H2  non d ame      -7.018  11.746  69.670  0.00  0.00     0.036 H 
ATOM     27  H3  non d ame      -5.994  11.869  71.121  0.00  0.00     0.036 H 
ATOM     28  H4  non d ame      -5.268  11.435  69.555  0.00  0.00     0.036 H 
ENDBRANCH  21  25
ENDBRANCH  16  19
ENDBRANCH  13  15
BRANCH  13  29
ATOM     29  C8  non d ame      -9.238   3.582  69.142  0.00  0.00    -0.049 C 
ATOM     30  H7  non d ame      -9.443   2.807  68.403  0.00  0.00     0.030 H 
ATOM     31  H8  non d ame      -9.220   3.137  70.138  0.00  0.00     0.030 H 
ATOM     32  H9  non d ame     -10.017   4.341  69.097  0.00  0.00     0.030 H 
ENDBRANCH  13  29
ENDBRANCH  10  13
ENDBRANCH   7   9
BRANCH   7  33
ATOM     33  C11 non d ame      -9.597   4.719  64.255  0.00  0.00    -0.033 C 
ATOM     34  H12 non d ame     -10.189   5.632  64.310  0.00  0.00     0.042 H 
BRANCH  33  35
ATOM     35  C12 non d ame      -9.360   4.404  62.745  0.00  0.00    -0.071 C 
ATOM     36  H13 non d ame     -10.003   3.577  62.442  0.00  0.00     0.028 H 
ATOM     37  H14 non d ame      -9.595   5.285  62.148  0.00  0.00     0.028 H 
ATOM     38  H15 non d ame      -8.316   4.129  62.591  0.00  0.00     0.028 H 
ENDBRANCH  33  35
BRANCH  33  39
ATOM     39  C13 non d ame     -10.402   3.577  64.953  0.00  0.00    -0.071 C 
ATOM     40  H16 non d ame     -10.443   2.708  64.297  0.00  0.00     0.028 H 
ATOM     41  H17 non d ame      -9.912   3.305  65.888  0.00  0.00     0.028 H 
ATOM     42  H18 non d ame     -11.415   3.922  65.160  0.00  0.00     0.028 H 
ENDBRANCH  33  39
ENDBRANCH   7  33
ENDBRANCH   4   7
ENDBRANCH   1   3
BRANCH   1  43
ATOM     43  C15 non d ame      -8.538   9.897  65.252  0.00  0.00     0.240 C 
ATOM     44  O5  non d ame      -7.740  10.639  65.730  0.00  0.00    -0.271 OA
ATOM     45  N6  non d ame      -9.970   9.991  65.651  0.00  0.00    -0.355 N 
ATOM     46  H46 non d ame     -10.657   9.369  65.249  0.00  0.00     0.162 HD
BRANCH  45  47
ATOM     47  C20 non d ame     -10.389  11.002  66.646  0.00  0.00     0.013 C 
ATOM     48  H30 non d ame      -9.507  11.574  66.933  0.00  0.00     0.072 H 
BRANCH  47  49
ATOM     49  C21 non d ame     -10.968  10.303  67.856  0.00  0.00    -0.038 C 
ATOM     50  H31 non d ame     -11.412  11.090  68.466  0.00  0.00     0.036 H 
ATOM     51  H32 non d ame     -11.592   9.501  67.461  0.00  0.00     0.036 H 
BRANCH  49  52
ATOM     52  C22 non d ame      -9.890   9.628  68.731  0.00  0.00     0.018 C 
ATOM     53  H33 non d ame      -8.935  10.026  68.385  0.00  0.00     0.048 H 
ATOM     54  H34 non d ame     -10.205   9.787  69.763  0.00  0.00     0.048 H 
BRANCH  52  55
ATOM     55  C23 non d ame      -9.805   8.088  68.540  0.00  0.00     0.259 C 
ATOM     56  O7  non d ame      -9.240   7.627  67.602  0.00  0.00    -0.265 OA
BRANCH  55  57
ATOM     57  O8  non d ame     -10.422   7.232  69.494  0.00  0.00    -0.317 OA
BRANCH  57  58
ATOM     58  C29 non d ame     -10.394   7.734  70.833  0.00  0.00     0.052 C 
ATOM     59  H47 non d ame     -10.009   6.921  71.446  0.00  0.00     0.082 H 
ATOM     60  H48 non d ame      -9.855   8.681  70.781  0.00  0.00     0.082 H 
BRANCH  58  61
ATOM     61  C35 non d ame     -11.856   8.025  71.265  0.00  0.00    -0.034 A 
ATOM     62  C30 non d ame     -12.218   9.301  71.685  0.00  0.00    -0.075 A 
ATOM     63  C31 non d ame     -13.531   9.562  72.073  0.00  0.00    -0.082 A 
ATOM     64  H49 non d ame     -11.473  10.095  71.710  0.00  0.00     0.084 H 
ATOM     65  C32 non d ame     -14.484   8.541  72.042  0.00  0.00    -0.083 A 
ATOM     66  H50 non d ame     -13.811  10.563  72.400  0.00  0.00     0.083 H 
ATOM     67  C33 non d ame     -14.118   7.268  71.626  0.00  0.00    -0.082 A 
ATOM     68  H51 non d ame     -15.513   8.736  72.344  0.00  0.00     0.083 H 
ATOM     69  C34 non d ame     -12.807   7.003  71.234  0.00  0.00    -0.075 A 
ATOM     70  H52 non d ame     -14.864   6.472  71.605  0.00  0.00     0.083 H 
ATOM     71  H53 non d ame     -12.528   6.001  70.907  0.00  0.00     0.084 H 
ENDBRANCH  58  61
ENDBRANCH  57  58
ENDBRANCH  55  57
ENDBRANCH  52  55
ENDBRANCH  49  52
ENDBRANCH  47  49
BRANCH  47  72
ATOM     72  C24 non d ame     -11.443  11.921  66.035  0.00  0.00    -0.039 C 
ATOM     73  H35 non d ame     -12.119  11.265  65.487  0.00  0.00     0.036 H 
ATOM     74  H36 non d ame     -11.820  12.522  66.863  0.00  0.00     0.036 H 
BRANCH  72  75
ATOM     75  C25 non d ame     -10.802  12.933  64.971  0.00  0.00    -0.001 C 
ATOM     76  C26 non d ame     -10.657  14.430  65.637  0.00  0.00    -0.035 C 
ATOM     77  C27 non d ame     -11.220  15.335  64.802  0.00  0.00     0.085 C 
ATOM     78  H38 non d ame     -11.269  14.498  66.536  0.00  0.00     0.036 H 
ATOM     79  H39 non d ame      -9.609  14.726  65.667  0.00  0.00     0.036 H 
ATOM     80  N5  non d ame     -12.022  14.560  63.785  0.00  0.00    -0.049 N 
ATOM     81  H40 non d ame     -11.901  15.920  65.421  0.00  0.00     0.075 H 
ATOM     82  H41 non d ame     -10.386  15.824  64.298  0.00  0.00     0.075 H 
ATOM     83  C28 non d ame     -11.537  13.025  63.912  0.00  0.00     0.193 C 
ATOM     84  H42 non d ame     -12.987  14.618  64.077  0.00  0.00     0.280 HD
ATOM     85  H43 non d ame     -11.748  14.909  62.878  0.00  0.00     0.280 HD
ATOM     86  H44 non d ame     -10.868  12.593  63.168  0.00  0.00     0.129 H 
ATOM     87  H37 non d ame      -9.918  12.518  64.487  0.00  0.00     0.046 H 
BRANCH  83  88
ATOM     88  O6  non d ame     -12.668  12.154  63.963  0.00  0.00    -0.369 OA
ATOM     89  H45 non d ame     -13.055  12.082  63.088  0.00  0.00     0.212 HD
ENDBRANCH  83  88
ENDBRANCH  72  75
ENDBRANCH  47  72
ENDBRANCH  45  47
ENDBRANCH   1  43
BRANCH   1  90
ATOM     90  C16 non d ame      -8.641   9.198  62.838  0.00  0.00    -0.035 C 
ATOM     91  H21 non d ame      -9.090   8.279  62.461  0.00  0.00     0.037 H 
ATOM     92  H22 non d ame      -9.261  10.079  63.003  0.00  0.00     0.037 H 
BRANCH  90  93
ATOM     93  C17 non d ame      -7.549   9.613  61.802  0.00  0.00    -0.059 C 
ATOM     94  H23 non d ame      -7.725   9.043  60.890  0.00  0.00     0.038 H 
BRANCH  93  95
ATOM     95  C18 non d ame      -7.626  11.130  61.439  0.00  0.00    -0.073 C 
ATOM     96  H24 non d ame      -7.592  11.724  62.353  0.00  0.00     0.028 H 
ATOM     97  H25 non d ame      -6.781  11.395  60.803  0.00  0.00     0.028 H 
ATOM     98  H26 non d ame      -8.556  11.331  60.908  0.00  0.00     0.028 H 
ENDBRANCH  93  95
BRANCH  93  99
ATOM     99  C19 non d ame      -6.151   9.243  62.305  0.00  0.00    -0.073 C 
ATOM    100  H27 non d ame      -5.853   8.286  61.876  0.00  0.00     0.028 H 
ATOM    101  H28 non d ame      -5.441  10.013  62.004  0.00  0.00     0.028 H 
ATOM    102  H29 non d ame      -6.165   9.165  63.392  0.00  0.00     0.028 H 
ENDBRANCH  93  99
ENDBRANCH  90  93
ENDBRANCH   1  90
TORSDOF 26
ENDMDL
MODEL 5
REMARK VINA RESULT:      -6.1      2.746      9.178
REMARK  26 active torsions:
REMARK  status: ('A' for Active; 'I' for Inactive)
REMARK    1  A    between atoms: C2_2  and  C3_3 
REMARK    2  A    between atoms: C4_6  and  C5_7 
REMARK       I    between atoms: C5_7  and  N2_9 
REMARK    3  A    between atoms: N2_9  and  C6_10 
REMARK    4  A    between atoms: C6_10  and  C7_11 
REMARK    5  A    between atoms: C6_10  and  C8_13 
REMARK       I    between atoms: C7_11  and  N3_14 
REMARK    6  A    between atoms: N3_14  and  C9_15 
REMARK    7  A    between atoms: C9_15  and  C10_16 
REMARK    8  A    between atoms: C9_15  and  C11_18 
REMARK       I    between atoms: C10_16  and  N4_21 
REMARK    9  A    between atoms: C11_18  and  C12_19 
REMARK   10  A    between atoms: C11_18  and  C13_20 
REMARK   11  A    between atoms: N4_21  and  C14_22 
REMARK   12  A    between atoms: C14_22  and  C15_23 
REMARK   13  A    between atoms: C14_22  and  C16_25 
REMARK       I    between atoms: C15_23  and  N6_40 
REMARK   14  A    between atoms: C16_25  and  C17_26 
REMARK   15  A    between atoms: C17_26  and  C18_27 
REMARK   16  A    between atoms: C17_26  and  C19_28 
REMARK   17  A    between atoms: C20_29  and  C21_30 
REMARK   18  A    between atoms: C20_29  and  C24_33 
REMARK   19  A    between atoms: C20_29  and  N6_40 
REMARK   20  A    between atoms: C21_30  and  C22_31 
REMARK   21  A    between atoms: C22_31  and  C23_32 
REMARK   22  A    between atoms: C23_32  and  O8_43 
REMARK   23  A    between atoms: C24_33  and  C25_34 
REMARK   24  A    between atoms: C28_38  and  O6_39 
REMARK   25  A    between atoms: C29_42  and  O8_43 
REMARK   26  A    between atoms: C29_42  and  C35_49 
ROOT
ATOM      1  C14 non d ame     -10.089   8.401  68.924  0.00  0.00     0.089 C 
ATOM      2  H20 non d ame     -11.131   8.127  68.762  0.00  0.00     0.087 H 
ENDROOT
BRANCH   1   3
ATOM      3  N4  non d ame      -9.277   7.580  68.039  0.00  0.00    -0.346 N 
ATOM      4  C10 non d ame      -9.930   6.724  66.982  0.00  0.00     0.241 C 
ATOM      5  O4  non d ame     -11.111   6.711  66.866  0.00  0.00    -0.271 OA
ATOM      6  H19 non d ame      -8.274   7.603  68.156  0.00  0.00     0.163 HD
BRANCH   4   7
ATOM      7  C9  non d ame      -9.074   5.884  66.071  0.00  0.00     0.092 C 
ATOM      8  H11 non d ame      -9.664   5.578  65.207  0.00  0.00     0.088 H 
BRANCH   7   9
ATOM      9  N3  non d ame      -7.957   6.690  65.568  0.00  0.00    -0.346 N 
ATOM     10  C7  non d ame      -7.664   6.716  64.157  0.00  0.00     0.240 C 
ATOM     11  O3  non d ame      -8.315   6.092  63.411  0.00  0.00    -0.271 OA
ATOM     12  H10 non d ame      -7.386   7.232  66.200  0.00  0.00     0.163 HD
BRANCH  10  13
ATOM     13  C6  non d ame      -6.472   7.573  63.629  0.00  0.00     0.086 C 
ATOM     14  H6  non d ame      -6.738   8.177  62.762  0.00  0.00     0.086 H 
BRANCH  13  15
ATOM     15  N2  non d ame      -6.061   8.499  64.671  0.00  0.00    -0.343 N 
ATOM     16  C5  non d ame      -5.738   9.884  64.318  0.00  0.00     0.273 C 
ATOM     17  O2  non d ame      -5.810  10.241  63.194  0.00  0.00    -0.266 OA
ATOM     18  H5  non d ame      -5.999   8.186  65.629  0.00  0.00     0.163 HD
BRANCH  16  19
ATOM     19  C4  non d ame      -5.304  10.875  65.409  0.00  0.00     0.154 A 
ATOM     20  C1  non d ame      -6.029  11.233  66.590  0.00  0.00    -0.017 A 
ATOM     21  C2  non d ame      -5.205  12.170  67.253  0.00  0.00     0.077 A 
ATOM     22  H1  non d ame      -7.004  10.869  66.917  0.00  0.00     0.091 H 
ATOM     23  O1  non d ame      -4.134  12.324  66.530  0.00  0.00    -0.218 OA
ATOM     24  N1  non d ame      -4.169  11.579  65.448  0.00  0.00    -0.123 NA
BRANCH  21  25
ATOM     25  C3  non d ame      -5.513  12.868  68.570  0.00  0.00    -0.029 C 
ATOM     26  H2  non d ame      -6.579  12.780  68.789  0.00  0.00     0.036 H 
ATOM     27  H3  non d ame      -4.939  12.402  69.371  0.00  0.00     0.036 H 
ATOM     28  H4  non d ame      -5.244  13.922  68.496  0.00  0.00     0.036 H 
ENDBRANCH  21  25
ENDBRANCH  16  19
ENDBRANCH  13  15
BRANCH  13  29
ATOM     29  C8  non d ame      -5.323   6.669  63.260  0.00  0.00    -0.049 C 
ATOM     30  H7  non d ame      -4.412   7.260  63.164  0.00  0.00     0.030 H 
ATOM     31  H8  non d ame      -5.188   5.917  64.039  0.00  0.00     0.030 H 
ATOM     32  H9  non d ame      -5.538   6.177  62.313  0.00  0.00     0.030 H 
ENDBRANCH  13  29
ENDBRANCH  10  13
ENDBRANCH   7   9
BRANCH   7  33
ATOM     33  C11 non d ame      -8.516   4.664  66.861  0.00  0.00    -0.033 C 
ATOM     34  H12 non d ame      -8.546   4.917  67.921  0.00  0.00     0.042 H 
BRANCH  33  35
ATOM     35  C12 non d ame      -9.407   3.399  66.656  0.00  0.00    -0.071 C 
ATOM     36  H13 non d ame      -9.408   2.804  67.569  0.00  0.00     0.028 H 
ATOM     37  H14 non d ame     -10.426   3.706  66.421  0.00  0.00     0.028 H 
ATOM     38  H15 non d ame      -9.008   2.804  65.834  0.00  0.00     0.028 H 
ENDBRANCH  33  35
BRANCH  33  39
ATOM     39  C13 non d ame      -7.030   4.380  66.473  0.00  0.00    -0.071 C 
ATOM     40  H16 non d ame      -6.989   3.534  65.787  0.00  0.00     0.028 H 
ATOM     41  H17 non d ame      -6.604   5.260  65.991  0.00  0.00     0.028 H 
ATOM     42  H18 non d ame      -6.459   4.146  67.372  0.00  0.00     0.028 H 
ENDBRANCH  33  39
ENDBRANCH   7  33
ENDBRANCH   4   7
ENDBRANCH   1   3
BRANCH   1  43
ATOM     43  C15 non d ame      -9.817   9.898  68.599  0.00  0.00     0.240 C 
ATOM     44  O5  non d ame      -8.836  10.424  69.016  0.00  0.00    -0.271 OA
ATOM     45  N6  non d ame     -10.775  10.673  67.760  0.00  0.00    -0.355 N 
ATOM     46  H46 non d ame     -11.609  10.236  67.397  0.00  0.00     0.162 HD
BRANCH  45  47
ATOM     47  C20 non d ame     -10.501  12.095  67.459  0.00  0.00     0.013 C 
ATOM     48  H30 non d ame      -9.923  12.507  68.287  0.00  0.00     0.072 H 
BRANCH  47  49
ATOM     49  C21 non d ame     -11.811  12.838  67.323  0.00  0.00    -0.038 C 
ATOM     50  H31 non d ame     -12.224  12.534  66.361  0.00  0.00     0.036 H 
ATOM     51  H32 non d ame     -12.361  12.635  68.243  0.00  0.00     0.036 H 
BRANCH  49  52
ATOM     52  C22 non d ame     -11.626  14.370  67.254  0.00  0.00     0.018 C 
ATOM     53  H33 non d ame     -10.576  14.530  67.006  0.00  0.00     0.048 H 
ATOM     54  H34 non d ame     -12.407  14.731  66.584  0.00  0.00     0.048 H 
BRANCH  52  55
ATOM     55  C23 non d ame     -11.858  15.089  68.612  0.00  0.00     0.259 C 
ATOM     56  O7  non d ame     -12.178  14.470  69.575  0.00  0.00    -0.265 OA
BRANCH  55  57
ATOM     57  O8  non d ame     -11.697  16.500  68.690  0.00  0.00    -0.317 OA
BRANCH  57  58
ATOM     58  C29 non d ame     -10.413  16.915  69.164  0.00  0.00     0.052 C 
ATOM     59  H47 non d ame     -10.603  17.493  70.067  0.00  0.00     0.082 H 
ATOM     60  H48 non d ame      -9.810  16.008  69.214  0.00  0.00     0.082 H 
BRANCH  58  61
ATOM     61  C35 non d ame      -9.792  17.858  68.099  0.00  0.00    -0.034 A 
ATOM     62  C30 non d ame     -10.498  18.973  67.660  0.00  0.00    -0.075 A 
ATOM     63  C31 non d ame      -9.941  19.820  66.703  0.00  0.00    -0.082 A 
ATOM     64  H49 non d ame     -11.487  19.183  68.065  0.00  0.00     0.084 H 
ATOM     65  C32 non d ame      -8.672  19.547  66.184  0.00  0.00    -0.083 A 
ATOM     66  H50 non d ame     -10.496  20.694  66.363  0.00  0.00     0.083 H 
ATOM     67  C33 non d ame      -7.972  18.431  66.622  0.00  0.00    -0.082 A 
ATOM     68  H51 non d ame      -8.229  20.204  65.436  0.00  0.00     0.083 H 
ATOM     69  C34 non d ame      -8.525  17.583  67.580  0.00  0.00    -0.075 A 
ATOM     70  H52 non d ame      -6.984  18.220  66.213  0.00  0.00     0.083 H 
ATOM     71  H53 non d ame      -7.968  16.709  67.921  0.00  0.00     0.084 H 
ENDBRANCH  58  61
ENDBRANCH  57  58
ENDBRANCH  55  57
ENDBRANCH  52  55
ENDBRANCH  49  52
ENDBRANCH  47  49
BRANCH  47  72
ATOM     72  C24 non d ame      -9.714  12.204  66.156  0.00  0.00    -0.039 C 
ATOM     73  H35 non d ame      -9.750  13.258  65.882  0.00  0.00     0.036 H 
ATOM     74  H36 non d ame      -8.755  11.725  66.354  0.00  0.00     0.036 H 
BRANCH  72  75
ATOM     75  C25 non d ame     -10.414  11.384  64.970  0.00  0.00    -0.001 C 
ATOM     76  C26 non d ame      -9.533  10.042  64.619  0.00  0.00    -0.035 C 
ATOM     77  C27 non d ame      -9.299  10.008  63.286  0.00  0.00     0.085 C 
ATOM     78  H38 non d ame      -8.535  10.127  65.050  0.00  0.00     0.036 H 
ATOM     79  H39 non d ame     -10.128   9.146  64.797  0.00  0.00     0.036 H 
ATOM     80  N5  non d ame      -9.659  11.369  62.740  0.00  0.00    -0.049 N 
ATOM     81  H40 non d ame      -8.224   9.856  63.181  0.00  0.00     0.075 H 
ATOM     82  H41 non d ame      -9.996   9.271  62.887  0.00  0.00     0.075 H 
ATOM     83  C28 non d ame     -10.511  12.101  63.900  0.00  0.00     0.193 C 
ATOM     84  H42 non d ame      -8.789  11.868  62.618  0.00  0.00     0.280 HD
ATOM     85  H43 non d ame     -10.265  11.209  61.949  0.00  0.00     0.280 HD
ATOM     86  H44 non d ame     -11.595  12.191  63.818  0.00  0.00     0.129 H 
ATOM     87  H37 non d ame     -11.482  11.246  65.139  0.00  0.00     0.046 H 
BRANCH  83  88
ATOM     88  O6  non d ame     -10.032  13.432  64.097  0.00  0.00    -0.369 OA
ATOM     89  H45 non d ame      -9.452  13.674  63.372  0.00  0.00     0.212 HD
ENDBRANCH  83  88
ENDBRANCH  72  75
ENDBRANCH  47  72
ENDBRANCH  45  47
ENDBRANCH   1  43
BRANCH   1  90
ATOM     90  C16 non d ame      -9.699   8.112  70.366  0.00  0.00    -0.035 C 
ATOM     91  H21 non d ame      -8.636   7.876  70.335  0.00  0.00     0.037 H 
ATOM     92  H22 non d ame     -10.050   8.971  70.937  0.00  0.00     0.037 H 
BRANCH  90  93
ATOM     93  C17 non d ame     -10.411   6.860  70.968  0.00  0.00    -0.059 C 
ATOM     94  H23 non d ame     -10.519   7.025  72.040  0.00  0.00     0.038 H 
BRANCH  93  95
ATOM     95  C18 non d ame     -11.839   6.649  70.372  0.00  0.00    -0.073 C 
ATOM     96  H24 non d ame     -11.755   6.326  69.334  0.00  0.00     0.028 H 
ATOM     97  H25 non d ame     -12.364   5.886  70.947  0.00  0.00     0.028 H 
ATOM     98  H26 non d ame     -12.395   7.585  70.419  0.00  0.00     0.028 H 
ENDBRANCH  93  95
BRANCH  93  99
ATOM     99  C19 non d ame      -9.554   5.604  70.787  0.00  0.00    -0.073 C 
ATOM    100  H27 non d ame     -10.186   4.719  70.859  0.00  0.00     0.028 H 
ATOM    101  H28 non d ame      -9.075   5.630  69.808  0.00  0.00     0.028 H 
ATOM    102  H29 non d ame      -8.792   5.570  71.564  0.00  0.00     0.028 H 
ENDBRANCH  93  99
ENDBRANCH  90  93
ENDBRANCH   1  90
TORSDOF 26
ENDMDL
MODEL 6
REMARK VINA RESULT:      -6.0      2.374      6.679
REMARK  26 active torsions:
REMARK  status: ('A' for Active; 'I' for Inactive)
REMARK    1  A    between atoms: C2_2  and  C3_3 
REMARK    2  A    between atoms: C4_6  and  C5_7 
REMARK       I    between atoms: C5_7  and  N2_9 
REMARK    3  A    between atoms: N2_9  and  C6_10 
REMARK    4  A    between atoms: C6_10  and  C7_11 
REMARK    5  A    between atoms: C6_10  and  C8_13 
REMARK       I    between atoms: C7_11  and  N3_14 
REMARK    6  A    between atoms: N3_14  and  C9_15 
REMARK    7  A    between atoms: C9_15  and  C10_16 
REMARK    8  A    between atoms: C9_15  and  C11_18 
REMARK       I    between atoms: C10_16  and  N4_21 
REMARK    9  A    between atoms: C11_18  and  C12_19 
REMARK   10  A    between atoms: C11_18  and  C13_20 
REMARK   11  A    between atoms: N4_21  and  C14_22 
REMARK   12  A    between atoms: C14_22  and  C15_23 
REMARK   13  A    between atoms: C14_22  and  C16_25 
REMARK       I    between atoms: C15_23  and  N6_40 
REMARK   14  A    between atoms: C16_25  and  C17_26 
REMARK   15  A    between atoms: C17_26  and  C18_27 
REMARK   16  A    between atoms: C17_26  and  C19_28 
REMARK   17  A    between atoms: C20_29  and  C21_30 
REMARK   18  A    between atoms: C20_29  and  C24_33 
REMARK   19  A    between atoms: C20_29  and  N6_40 
REMARK   20  A    between atoms: C21_30  and  C22_31 
REMARK   21  A    between atoms: C22_31  and  C23_32 
REMARK   22  A    between atoms: C23_32  and  O8_43 
REMARK   23  A    between atoms: C24_33  and  C25_34 
REMARK   24  A    between atoms: C28_38  and  O6_39 
REMARK   25  A    between atoms: C29_42  and  O8_43 
REMARK   26  A    between atoms: C29_42  and  C35_49 
ROOT
ATOM      1  C14 non d ame      -9.063   6.564  68.306  0.00  0.00     0.089 C 
ATOM      2  H20 non d ame      -9.311   6.087  67.358  0.00  0.00     0.087 H 
ENDROOT
BRANCH   1   3
ATOM      3  N4  non d ame      -8.641   7.926  68.016  0.00  0.00    -0.346 N 
ATOM      4  C10 non d ame      -9.243   8.678  66.855  0.00  0.00     0.241 C 
ATOM      5  O4  non d ame     -10.063   8.165  66.168  0.00  0.00    -0.271 OA
ATOM      6  H19 non d ame      -7.939   8.343  68.611  0.00  0.00     0.163 HD
BRANCH   4   7
ATOM      7  C9  non d ame      -8.799  10.089  66.572  0.00  0.00     0.092 C 
ATOM      8  H11 non d ame      -8.232  10.107  65.641  0.00  0.00     0.088 H 
BRANCH   7   9
ATOM      9  N3  non d ame      -9.975  10.942  66.379  0.00  0.00    -0.346 N 
ATOM     10  C7  non d ame     -10.348  11.368  65.052  0.00  0.00     0.240 C 
ATOM     11  O3  non d ame      -9.711  11.034  64.128  0.00  0.00    -0.271 OA
ATOM     12  H10 non d ame     -10.532  11.240  67.166  0.00  0.00     0.163 HD
BRANCH  10  13
ATOM     13  C6  non d ame     -11.598  12.279  64.854  0.00  0.00     0.086 C 
ATOM     14  H6  non d ame     -12.356  12.129  65.623  0.00  0.00     0.086 H 
BRANCH  13  15
ATOM     15  N2  non d ame     -11.186  13.670  64.942  0.00  0.00    -0.343 N 
ATOM     16  C5  non d ame     -11.161  14.333  66.249  0.00  0.00     0.273 C 
ATOM     17  O2  non d ame     -11.476  13.739  67.221  0.00  0.00    -0.266 OA
ATOM     18  H5  non d ame     -10.921  14.171  64.107  0.00  0.00     0.163 HD
BRANCH  16  19
ATOM     19  C4  non d ame     -10.725  15.802  66.358  0.00  0.00     0.154 A 
ATOM     20  C1  non d ame     -10.584  16.576  67.553  0.00  0.00    -0.017 A 
ATOM     21  C2  non d ame     -10.165  17.851  67.115  0.00  0.00     0.077 A 
ATOM     22  H1  non d ame     -10.759  16.260  68.583  0.00  0.00     0.091 H 
ATOM     23  O1  non d ame     -10.077  17.805  65.817  0.00  0.00    -0.218 OA
ATOM     24  N1  non d ame     -10.400  16.620  65.352  0.00  0.00    -0.123 NA
BRANCH  21  25
ATOM     25  C3  non d ame      -9.869  19.056  67.997  0.00  0.00    -0.029 C 
ATOM     26  H2  non d ame     -10.674  19.183  68.722  0.00  0.00     0.036 H 
ATOM     27  H3  non d ame      -8.928  18.898  68.523  0.00  0.00     0.036 H 
ATOM     28  H4  non d ame      -9.792  19.951  67.379  0.00  0.00     0.036 H 
ENDBRANCH  21  25
ENDBRANCH  16  19
ENDBRANCH  13  15
BRANCH  13  29
ATOM     29  C8  non d ame     -12.213  12.008  63.505  0.00  0.00    -0.049 C 
ATOM     30  H7  non d ame     -12.632  11.002  63.491  0.00  0.00     0.030 H 
ATOM     31  H8  non d ame     -13.005  12.734  63.314  0.00  0.00     0.030 H 
ATOM     32  H9  non d ame     -11.448  12.092  62.734  0.00  0.00     0.030 H 
ENDBRANCH  13  29
ENDBRANCH  10  13
ENDBRANCH   7   9
BRANCH   7  33
ATOM     33  C11 non d ame      -7.965  10.622  67.774  0.00  0.00    -0.033 C 
ATOM     34  H12 non d ame      -8.065   9.904  68.588  0.00  0.00     0.042 H 
BRANCH  33  35
ATOM     35  C12 non d ame      -6.449  10.718  67.417  0.00  0.00    -0.071 C 
ATOM     36  H13 non d ame      -6.340  10.964  66.360  0.00  0.00     0.028 H 
ATOM     37  H14 non d ame      -5.981  11.495  68.021  0.00  0.00     0.028 H 
ATOM     38  H15 non d ame      -5.968   9.761  67.619  0.00  0.00     0.028 H 
ENDBRANCH  33  35
BRANCH  33  39
ATOM     39  C13 non d ame      -8.518  11.996  68.271  0.00  0.00    -0.071 C 
ATOM     40  H16 non d ame      -9.054  11.854  69.209  0.00  0.00     0.028 H 
ATOM     41  H17 non d ame      -7.689  12.687  68.427  0.00  0.00     0.028 H 
ATOM     42  H18 non d ame      -9.196  12.406  67.523  0.00  0.00     0.028 H 
ENDBRANCH  33  39
ENDBRANCH   7  33
ENDBRANCH   4   7
ENDBRANCH   1   3
BRANCH   1  43
ATOM     43  C15 non d ame     -10.281   6.618  69.273  0.00  0.00     0.240 C 
ATOM     44  O5  non d ame     -11.275   6.023  69.006  0.00  0.00    -0.271 OA
ATOM     45  N6  non d ame     -10.205   7.405  70.537  0.00  0.00    -0.355 N 
ATOM     46  H46 non d ame      -9.365   7.911  70.777  0.00  0.00     0.162 HD
BRANCH  45  47
ATOM     47  C20 non d ame     -11.371   7.446  71.446  0.00  0.00     0.013 C 
ATOM     48  H30 non d ame     -12.257   7.188  70.866  0.00  0.00     0.072 H 
BRANCH  47  49
ATOM     49  C21 non d ame     -11.514   8.839  72.014  0.00  0.00    -0.038 C 
ATOM     50  H31 non d ame     -11.938   8.710  73.010  0.00  0.00     0.036 H 
ATOM     51  H32 non d ame     -10.536   9.307  71.894  0.00  0.00     0.036 H 
BRANCH  49  52
ATOM     52  C22 non d ame     -12.513   9.710  71.222  0.00  0.00     0.018 C 
ATOM     53  H33 non d ame     -13.156   9.010  70.687  0.00  0.00     0.048 H 
ATOM     54  H34 non d ame     -12.945  10.399  71.949  0.00  0.00     0.048 H 
BRANCH  52  55
ATOM     55  C23 non d ame     -11.846  10.596  70.134  0.00  0.00     0.259 C 
ATOM     56  O7  non d ame     -11.343  10.099  69.179  0.00  0.00    -0.265 OA
BRANCH  55  57
ATOM     57  O8  non d ame     -11.830  12.008  70.297  0.00  0.00    -0.317 OA
BRANCH  57  58
ATOM     58  C29 non d ame     -13.050  12.550  70.813  0.00  0.00     0.052 C 
ATOM     59  H47 non d ame     -13.672  12.756  69.943  0.00  0.00     0.082 H 
ATOM     60  H48 non d ame     -13.389  11.842  71.570  0.00  0.00     0.082 H 
BRANCH  58  61
ATOM     61  C35 non d ame     -12.719  13.895  71.511  0.00  0.00    -0.034 A 
ATOM     62  C30 non d ame     -13.143  14.125  72.816  0.00  0.00    -0.075 A 
ATOM     63  C31 non d ame     -12.846  15.334  73.444  0.00  0.00    -0.082 A 
ATOM     64  H49 non d ame     -13.707  13.359  73.346  0.00  0.00     0.084 H 
ATOM     65  C32 non d ame     -12.123  16.316  72.761  0.00  0.00    -0.083 A 
ATOM     66  H50 non d ame     -13.178  15.510  74.467  0.00  0.00     0.083 H 
ATOM     67  C33 non d ame     -11.705  16.083  71.457  0.00  0.00    -0.082 A 
ATOM     68  H51 non d ame     -11.886  17.264  73.244  0.00  0.00     0.083 H 
ATOM     69  C34 non d ame     -11.998  14.875  70.827  0.00  0.00    -0.075 A 
ATOM     70  H52 non d ame     -11.143  16.852  70.926  0.00  0.00     0.083 H 
ATOM     71  H53 non d ame     -11.664  14.700  69.803  0.00  0.00     0.084 H 
ENDBRANCH  58  61
ENDBRANCH  57  58
ENDBRANCH  55  57
ENDBRANCH  52  55
ENDBRANCH  49  52
ENDBRANCH  47  49
BRANCH  47  72
ATOM     72  C24 non d ame     -11.173   6.448  72.585  0.00  0.00    -0.039 C 
ATOM     73  H35 non d ame     -11.302   7.024  73.501  0.00  0.00     0.036 H 
ATOM     74  H36 non d ame     -11.844   5.618  72.364  0.00  0.00     0.036 H 
BRANCH  72  75
ATOM     75  C25 non d ame      -9.683   5.859  72.603  0.00  0.00    -0.001 C 
ATOM     76  C26 non d ame      -9.711   4.253  72.250  0.00  0.00    -0.035 C 
ATOM     77  C27 non d ame      -9.018   3.584  73.202  0.00  0.00     0.085 C 
ATOM     78  H38 non d ame     -10.724   3.866  72.354  0.00  0.00     0.036 H 
ATOM     79  H39 non d ame      -9.144   4.060  71.339  0.00  0.00     0.036 H 
ATOM     80  N5  non d ame      -8.797   4.545  74.345  0.00  0.00    -0.049 N 
ATOM     81  H40 non d ame      -9.678   2.782  73.535  0.00  0.00     0.075 H 
ATOM     82  H41 non d ame      -8.056   3.346  72.749  0.00  0.00     0.075 H 
ATOM     83  C28 non d ame      -9.134   6.013  73.762  0.00  0.00     0.193 C 
ATOM     84  H42 non d ame      -9.483   4.315  75.050  0.00  0.00     0.280 HD
ATOM     85  H43 non d ame      -7.813   4.506  74.567  0.00  0.00     0.280 HD
ATOM     86  H44 non d ame      -8.331   6.707  73.511  0.00  0.00     0.129 H 
ATOM     87  H37 non d ame      -8.987   6.478  72.039  0.00  0.00     0.046 H 
BRANCH  83  88
ATOM     88  O6  non d ame      -9.979   6.721  74.670  0.00  0.00    -0.369 OA
ATOM     89  H45 non d ame     -10.339   7.496  74.234  0.00  0.00     0.212 HD
ENDBRANCH  83  88
ENDBRANCH  72  75
ENDBRANCH  47  72
ENDBRANCH  45  47
ENDBRANCH   1  43
BRANCH   1  90
ATOM     90  C16 non d ame      -7.915   5.820  68.972  0.00  0.00    -0.035 C 
ATOM     91  H21 non d ame      -7.113   6.552  69.067  0.00  0.00     0.037 H 
ATOM     92  H22 non d ame      -8.345   5.364  69.863  0.00  0.00     0.037 H 
BRANCH  90  93
ATOM     93  C17 non d ame      -7.344   4.650  68.109  0.00  0.00    -0.059 C 
ATOM     94  H23 non d ame      -7.718   3.717  68.529  0.00  0.00     0.038 H 
BRANCH  93  95
ATOM     95  C18 non d ame      -7.814   4.729  66.623  0.00  0.00    -0.073 C 
ATOM     96  H24 non d ame      -7.043   5.213  66.023  0.00  0.00     0.028 H 
ATOM     97  H25 non d ame      -7.988   3.722  66.243  0.00  0.00     0.028 H 
ATOM     98  H26 non d ame      -8.737   5.304  66.563  0.00  0.00     0.028 H 
ENDBRANCH  93  95
BRANCH  93  99
ATOM     99  C19 non d ame      -5.815   4.604  68.196  0.00  0.00    -0.073 C 
ATOM    100  H27 non d ame      -5.510   3.721  68.757  0.00  0.00     0.028 H 
ATOM    101  H28 non d ame      -5.396   4.560  67.191  0.00  0.00     0.028 H 
ATOM    102  H29 non d ame      -5.454   5.498  68.703  0.00  0.00     0.028 H 
ENDBRANCH  93  99
ENDBRANCH  90  93
ENDBRANCH   1  90
TORSDOF 26
ENDMDL
MODEL 7
REMARK VINA RESULT:      -6.0      2.190      6.515
REMARK  26 active torsions:
REMARK  status: ('A' for Active; 'I' for Inactive)
REMARK    1  A    between atoms: C2_2  and  C3_3 
REMARK    2  A    between atoms: C4_6  and  C5_7 
REMARK       I    between atoms: C5_7  and  N2_9 
REMARK    3  A    between atoms: N2_9  and  C6_10 
REMARK    4  A    between atoms: C6_10  and  C7_11 
REMARK    5  A    between atoms: C6_10  and  C8_13 
REMARK       I    between atoms: C7_11  and  N3_14 
REMARK    6  A    between atoms: N3_14  and  C9_15 
REMARK    7  A    between atoms: C9_15  and  C10_16 
REMARK    8  A    between atoms: C9_15  and  C11_18 
REMARK       I    between atoms: C10_16  and  N4_21 
REMARK    9  A    between atoms: C11_18  and  C12_19 
REMARK   10  A    between atoms: C11_18  and  C13_20 
REMARK   11  A    between atoms: N4_21  and  C14_22 
REMARK   12  A    between atoms: C14_22  and  C15_23 
REMARK   13  A    between atoms: C14_22  and  C16_25 
REMARK       I    between atoms: C15_23  and  N6_40 
REMARK   14  A    between atoms: C16_25  and  C17_26 
REMARK   15  A    between atoms: C17_26  and  C18_27 
REMARK   16  A    between atoms: C17_26  and  C19_28 
REMARK   17  A    between atoms: C20_29  and  C21_30 
REMARK   18  A    between atoms: C20_29  and  C24_33 
REMARK   19  A    between atoms: C20_29  and  N6_40 
REMARK   20  A    between atoms: C21_30  and  C22_31 
REMARK   21  A    between atoms: C22_31  and  C23_32 
REMARK   22  A    between atoms: C23_32  and  O8_43 
REMARK   23  A    between atoms: C24_33  and  C25_34 
REMARK   24  A    between atoms: C28_38  and  O6_39 
REMARK   25  A    between atoms: C29_42  and  O8_43 
REMARK   26  A    between atoms: C29_42  and  C35_49 
ROOT
ATOM      1  C14 non d ame      -8.417   6.978  65.733  0.00  0.00     0.089 C 
ATOM      2  H20 non d ame      -8.947   6.450  64.941  0.00  0.00     0.087 H 
ENDROOT
BRANCH   1   3
ATOM      3  N4  non d ame      -8.102   8.310  65.239  0.00  0.00    -0.346 N 
ATOM      4  C10 non d ame      -8.215   8.623  63.768  0.00  0.00     0.241 C 
ATOM      5  O4  non d ame      -8.560   7.785  63.001  0.00  0.00    -0.271 OA
ATOM      6  H19 non d ame      -7.808   9.008  65.908  0.00  0.00     0.163 HD
BRANCH   4   7
ATOM      7  C9  non d ame      -7.890  10.008  63.274  0.00  0.00     0.092 C 
ATOM      8  H11 non d ame      -8.289  10.133  62.268  0.00  0.00     0.088 H 
BRANCH   7   9
ATOM      9  N3  non d ame      -8.552  11.000  64.128  0.00  0.00    -0.346 N 
ATOM     10  C7  non d ame      -9.908  11.402  63.848  0.00  0.00     0.240 C 
ATOM     11  O3  non d ame     -10.481  10.940  62.937  0.00  0.00    -0.271 OA
ATOM     12  H10 non d ame      -8.070  11.408  64.915  0.00  0.00     0.163 HD
BRANCH  10  13
ATOM     13  C6  non d ame     -10.606  12.460  64.757  0.00  0.00     0.086 C 
ATOM     14  H6  non d ame     -10.803  12.088  65.763  0.00  0.00     0.086 H 
BRANCH  13  15
ATOM     15  N2  non d ame      -9.726  13.608  64.905  0.00  0.00    -0.343 N 
ATOM     16  C5  non d ame      -9.520  14.193  66.232  0.00  0.00     0.273 C 
ATOM     17  O2  non d ame     -10.069  13.735  67.173  0.00  0.00    -0.266 OA
ATOM     18  H5  non d ame      -9.263  13.995  64.095  0.00  0.00     0.163 HD
BRANCH  16  19
ATOM     19  C4  non d ame      -8.591  15.405  66.403  0.00  0.00     0.154 A 
ATOM     20  C1  non d ame      -8.894  16.774  66.115  0.00  0.00    -0.017 A 
ATOM     21  C2  non d ame      -7.717  17.484  66.441  0.00  0.00     0.077 A 
ATOM     22  H1  non d ame      -9.826  17.189  65.729  0.00  0.00     0.091 H 
ATOM     23  O1  non d ame      -6.846  16.615  66.867  0.00  0.00    -0.218 OA
ATOM     24  N1  non d ame      -7.334  15.395  66.853  0.00  0.00    -0.123 NA
BRANCH  21  25
ATOM     25  C3  non d ame      -7.507  18.986  66.318  0.00  0.00    -0.029 C 
ATOM     26  H2  non d ame      -6.821  19.323  67.096  0.00  0.00     0.036 H 
ATOM     27  H3  non d ame      -7.087  19.216  65.339  0.00  0.00     0.036 H 
ATOM     28  H4  non d ame      -8.463  19.498  66.432  0.00  0.00     0.036 H 
ENDBRANCH  21  25
ENDBRANCH  16  19
ENDBRANCH  13  15
BRANCH  13  29
ATOM     29  C8  non d ame     -11.909  12.886  64.131  0.00  0.00    -0.049 C 
ATOM     30  H7  non d ame     -12.676  12.962  64.902  0.00  0.00     0.030 H 
ATOM     31  H8  non d ame     -11.780  13.857  63.649  0.00  0.00     0.030 H 
ATOM     32  H9  non d ame     -12.213  12.150  63.388  0.00  0.00     0.030 H 
ENDBRANCH  13  29
ENDBRANCH  10  13
ENDBRANCH   7   9
BRANCH   7  33
ATOM     33  C11 non d ame      -6.350  10.229  63.325  0.00  0.00    -0.033 C 
ATOM     34  H12 non d ame      -6.135  11.160  62.800  0.00  0.00     0.042 H 
BRANCH  33  35
ATOM     35  C12 non d ame      -5.847  10.392  64.793  0.00  0.00    -0.071 C 
ATOM     36  H13 non d ame      -6.117   9.507  65.370  0.00  0.00     0.028 H 
ATOM     37  H14 non d ame      -4.764  10.510  64.795  0.00  0.00     0.028 H 
ATOM     38  H15 non d ame      -6.309  11.273  65.239  0.00  0.00     0.028 H 
ENDBRANCH  33  35
BRANCH  33  39
ATOM     39  C13 non d ame      -5.595   9.075  62.592  0.00  0.00    -0.071 C 
ATOM     40  H16 non d ame      -4.666   9.457  62.172  0.00  0.00     0.028 H 
ATOM     41  H17 non d ame      -5.373   8.277  63.302  0.00  0.00     0.028 H 
ATOM     42  H18 non d ame      -6.222   8.683  61.791  0.00  0.00     0.028 H 
ENDBRANCH  33  39
ENDBRANCH   7  33
ENDBRANCH   4   7
ENDBRANCH   1   3
BRANCH   1  43
ATOM     43  C15 non d ame      -9.278   7.119  67.022  0.00  0.00     0.240 C 
ATOM     44  O5  non d ame     -10.403   6.734  67.027  0.00  0.00    -0.271 OA
ATOM     45  N6  non d ame      -8.697   7.726  68.253  0.00  0.00    -0.355 N 
ATOM     46  H46 non d ame      -7.742   8.054  68.263  0.00  0.00     0.162 HD
BRANCH  45  47
ATOM     47  C20 non d ame      -9.528   7.852  69.470  0.00  0.00     0.013 C 
ATOM     48  H30 non d ame     -10.422   7.244  69.330  0.00  0.00     0.072 H 
BRANCH  47  49
ATOM     49  C21 non d ame      -9.914   9.301  69.665  0.00  0.00    -0.038 C 
ATOM     50  H31 non d ame      -9.524   9.581  70.644  0.00  0.00     0.036 H 
ATOM     51  H32 non d ame      -9.568   9.820  68.770  0.00  0.00     0.036 H 
BRANCH  49  52
ATOM     52  C22 non d ame     -11.442   9.511  69.727  0.00  0.00     0.018 C 
ATOM     53  H33 non d ame     -11.863   8.848  68.970  0.00  0.00     0.048 H 
ATOM     54  H34 non d ame     -11.716   9.383  70.775  0.00  0.00     0.048 H 
BRANCH  52  55
ATOM     55  C23 non d ame     -11.893  10.946  69.337  0.00  0.00     0.259 C 
ATOM     56  O7  non d ame     -12.143  11.212  68.207  0.00  0.00    -0.265 OA
BRANCH  55  57
ATOM     57  O8  non d ame     -11.990  11.944  70.345  0.00  0.00    -0.317 OA
BRANCH  57  58
ATOM     58  C29 non d ame     -12.033  13.282  69.839  0.00  0.00     0.052 C 
ATOM     59  H47 non d ame     -11.034  13.486  69.456  0.00  0.00     0.082 H 
ATOM     60  H48 non d ame     -12.891  13.315  69.166  0.00  0.00     0.082 H 
BRANCH  58  61
ATOM     61  C35 non d ame     -12.308  14.236  71.031  0.00  0.00    -0.034 A 
ATOM     62  C30 non d ame     -13.253  13.896  71.993  0.00  0.00    -0.075 A 
ATOM     63  C31 non d ame     -13.500  14.753  73.064  0.00  0.00    -0.082 A 
ATOM     64  H49 non d ame     -13.801  12.958  71.907  0.00  0.00     0.084 H 
ATOM     65  C32 non d ame     -12.798  15.957  73.170  0.00  0.00    -0.083 A 
ATOM     66  H50 non d ame     -14.240  14.482  73.816  0.00  0.00     0.083 H 
ATOM     67  C33 non d ame     -11.857  16.294  72.206  0.00  0.00    -0.082 A 
ATOM     68  H51 non d ame     -12.984  16.633  74.004  0.00  0.00     0.083 H 
ATOM     69  C34 non d ame     -11.606  15.439  71.135  0.00  0.00    -0.075 A 
ATOM     70  H52 non d ame     -11.313  17.235  72.291  0.00  0.00     0.083 H 
ATOM     71  H53 non d ame     -10.864  15.711  70.383  0.00  0.00     0.084 H 
ENDBRANCH  58  61
ENDBRANCH  57  58
ENDBRANCH  55  57
ENDBRANCH  52  55
ENDBRANCH  49  52
ENDBRANCH  47  49
BRANCH  47  72
ATOM     72  C24 non d ame      -8.740   7.366  70.685  0.00  0.00    -0.039 C 
ATOM     73  H35 non d ame      -7.938   6.748  70.283  0.00  0.00     0.036 H 
ATOM     74  H36 non d ame      -8.502   8.264  71.255  0.00  0.00     0.036 H 
BRANCH  72  75
ATOM     75  C25 non d ame      -9.630   6.428  71.631  0.00  0.00    -0.001 C 
ATOM     76  C26 non d ame     -11.102   6.173  70.944  0.00  0.00    -0.035 C 
ATOM     77  C27 non d ame     -12.064   6.462  71.853  0.00  0.00     0.085 C 
ATOM     78  H38 non d ame     -11.275   6.900  70.151  0.00  0.00     0.036 H 
ATOM     79  H39 non d ame     -11.245   5.110  70.750  0.00  0.00     0.036 H 
ATOM     80  N5  non d ame     -11.393   7.200  72.986  0.00  0.00    -0.049 N 
ATOM     81  H40 non d ame     -12.751   7.139  71.345  0.00  0.00     0.075 H 
ATOM     82  H41 non d ame     -12.417   5.498  72.218  0.00  0.00     0.075 H 
ATOM     83  C28 non d ame      -9.807   6.968  72.791  0.00  0.00     0.193 C 
ATOM     84  H42 non d ame     -11.594   8.180  72.848  0.00  0.00     0.280 HD
ATOM     85  H43 non d ame     -11.683   6.741  73.838  0.00  0.00     0.280 HD
ATOM     86  H44 non d ame      -9.269   6.261  73.424  0.00  0.00     0.129 H 
ATOM     87  H37 non d ame      -9.083   5.549  71.972  0.00  0.00     0.046 H 
BRANCH  83  88
ATOM     88  O6  non d ame      -9.109   8.207  72.922  0.00  0.00    -0.369 OA
ATOM     89  H45 non d ame      -8.395   8.106  73.555  0.00  0.00     0.212 HD
ENDBRANCH  83  88
ENDBRANCH  72  75
ENDBRANCH  47  72
ENDBRANCH  45  47
ENDBRANCH   1  43
BRANCH   1  90
ATOM     90  C16 non d ame      -7.122   6.250  66.061  0.00  0.00    -0.035 C 
ATOM     91  H21 non d ame      -6.871   6.552  67.078  0.00  0.00     0.037 H 
ATOM     92  H22 non d ame      -7.316   5.202  65.836  0.00  0.00     0.037 H 
BRANCH  90  93
ATOM     93  C17 non d ame      -5.919   6.680  65.163  0.00  0.00    -0.059 C 
ATOM     94  H23 non d ame      -6.180   7.626  64.691  0.00  0.00     0.038 H 
BRANCH  93  95
ATOM     95  C18 non d ame      -4.615   6.905  65.993  0.00  0.00    -0.073 C 
ATOM     96  H24 non d ame      -4.877   7.139  67.025  0.00  0.00     0.028 H 
ATOM     97  H25 non d ame      -4.009   5.999  65.969  0.00  0.00     0.028 H 
ATOM     98  H26 non d ame      -4.049   7.731  65.564  0.00  0.00     0.028 H 
ENDBRANCH  93  95
BRANCH  93  99
ATOM     99  C19 non d ame      -5.683   5.663  64.042  0.00  0.00    -0.073 C 
ATOM    100  H27 non d ame      -6.333   4.801  64.192  0.00  0.00     0.028 H 
ATOM    101  H28 non d ame      -5.907   6.125  63.081  0.00  0.00     0.028 H 
ATOM    102  H29 non d ame      -4.643   5.340  64.058  0.00  0.00     0.028 H 
ENDBRANCH  93  99
ENDBRANCH  90  93
ENDBRANCH   1  90
TORSDOF 26
ENDMDL
MODEL 8
REMARK VINA RESULT:      -6.0      2.024      3.600
REMARK  26 active torsions:
REMARK  status: ('A' for Active; 'I' for Inactive)
REMARK    1  A    between atoms: C2_2  and  C3_3 
REMARK    2  A    between atoms: C4_6  and  C5_7 
REMARK       I    between atoms: C5_7  and  N2_9 
REMARK    3  A    between atoms: N2_9  and  C6_10 
REMARK    4  A    between atoms: C6_10  and  C7_11 
REMARK    5  A    between atoms: C6_10  and  C8_13 
REMARK       I    between atoms: C7_11  and  N3_14 
REMARK    6  A    between atoms: N3_14  and  C9_15 
REMARK    7  A    between atoms: C9_15  and  C10_16 
REMARK    8  A    between atoms: C9_15  and  C11_18 
REMARK       I    between atoms: C10_16  and  N4_21 
REMARK    9  A    between atoms: C11_18  and  C12_19 
REMARK   10  A    between atoms: C11_18  and  C13_20 
REMARK   11  A    between atoms: N4_21  and  C14_22 
REMARK   12  A    between atoms: C14_22  and  C15_23 
REMARK   13  A    between atoms: C14_22  and  C16_25 
REMARK       I    between atoms: C15_23  and  N6_40 
REMARK   14  A    between atoms: C16_25  and  C17_26 
REMARK   15  A    between atoms: C17_26  and  C18_27 
REMARK   16  A    between atoms: C17_26  and  C19_28 
REMARK   17  A    between atoms: C20_29  and  C21_30 
REMARK   18  A    between atoms: C20_29  and  C24_33 
REMARK   19  A    between atoms: C20_29  and  N6_40 
REMARK   20  A    between atoms: C21_30  and  C22_31 
REMARK   21  A    between atoms: C22_31  and  C23_32 
REMARK   22  A    between atoms: C23_32  and  O8_43 
REMARK   23  A    between atoms: C24_33  and  C25_34 
REMARK   24  A    between atoms: C28_38  and  O6_39 
REMARK   25  A    between atoms: C29_42  and  O8_43 
REMARK   26  A    between atoms: C29_42  and  C35_49 
ROOT
ATOM      1  C14 non d ame     -10.077   9.316  66.756  0.00  0.00     0.089 C 
ATOM      2  H20 non d ame     -11.089   8.911  66.762  0.00  0.00     0.087 H 
ENDROOT
BRANCH   1   3
ATOM      3  N4  non d ame     -10.173  10.736  66.452  0.00  0.00    -0.346 N 
ATOM      4  C10 non d ame     -11.297  11.562  67.025  0.00  0.00     0.241 C 
ATOM      5  O4  non d ame     -12.114  11.061  67.726  0.00  0.00    -0.271 OA
ATOM      6  H19 non d ame      -9.470  11.142  65.852  0.00  0.00     0.163 HD
BRANCH   4   7
ATOM      7  C9  non d ame     -11.379  13.031  66.706  0.00  0.00     0.092 C 
ATOM      8  H11 non d ame     -11.873  13.550  67.527  0.00  0.00     0.088 H 
BRANCH   7   9
ATOM      9  N3  non d ame     -10.025  13.585  66.598  0.00  0.00    -0.346 N 
ATOM     10  C7  non d ame      -9.465  14.338  67.692  0.00  0.00     0.240 C 
ATOM     11  O3  non d ame     -10.090  14.511  68.667  0.00  0.00    -0.271 OA
ATOM     12  H10 non d ame      -9.475  13.445  65.763  0.00  0.00     0.163 HD
BRANCH  10  13
ATOM     13  C6  non d ame      -8.025  14.927  67.570  0.00  0.00     0.086 C 
ATOM     14  H6  non d ame      -7.628  15.273  68.524  0.00  0.00     0.086 H 
BRANCH  13  15
ATOM     15  N2  non d ame      -7.128  13.884  67.101  0.00  0.00    -0.343 N 
ATOM     16  C5  non d ame      -6.248  13.207  68.056  0.00  0.00     0.273 C 
ATOM     17  O2  non d ame      -6.267  13.510  69.198  0.00  0.00    -0.266 OA
ATOM     18  H5  non d ame      -7.116  13.632  66.123  0.00  0.00     0.163 HD
BRANCH  16  19
ATOM     19  C4  non d ame      -5.296  12.101  67.574  0.00  0.00     0.154 A 
ATOM     20  C1  non d ame      -5.005  10.863  68.232  0.00  0.00    -0.017 A 
ATOM     21  C2  non d ame      -4.080  10.211  67.387  0.00  0.00     0.077 A 
ATOM     22  H1  non d ame      -5.404  10.495  69.178  0.00  0.00     0.091 H 
ATOM     23  O1  non d ame      -3.872  10.990  66.366  0.00  0.00    -0.218 OA
ATOM     24  N1  non d ame      -4.569  12.099  66.453  0.00  0.00    -0.123 NA
BRANCH  21  25
ATOM     25  C3  non d ame      -3.447   8.847  67.627  0.00  0.00    -0.029 C 
ATOM     26  H2  non d ame      -3.467   8.269  66.702  0.00  0.00     0.036 H 
ATOM     27  H3  non d ame      -2.415   8.978  67.951  0.00  0.00     0.036 H 
ATOM     28  H4  non d ame      -4.005   8.317  68.399  0.00  0.00     0.036 H 
ENDBRANCH  21  25
ENDBRANCH  16  19
ENDBRANCH  13  15
BRANCH  13  29
ATOM     29  C8  non d ame      -8.031  16.078  66.597  0.00  0.00    -0.049 C 
ATOM     30  H7  non d ame      -9.054  16.424  66.448  0.00  0.00     0.030 H 
ATOM     31  H8  non d ame      -7.426  16.894  66.997  0.00  0.00     0.030 H 
ATOM     32  H9  non d ame      -7.616  15.752  65.645  0.00  0.00     0.030 H 
ENDBRANCH  13  29
ENDBRANCH  10  13
ENDBRANCH   7   9
BRANCH   7  33
ATOM     33  C11 non d ame     -12.126  13.228  65.354  0.00  0.00    -0.033 C 
ATOM     34  H12 non d ame     -13.194  13.132  65.552  0.00  0.00     0.042 H 
BRANCH  33  35
ATOM     35  C12 non d ame     -11.884  14.656  64.773  0.00  0.00    -0.071 C 
ATOM     36  H13 non d ame     -11.719  15.357  65.591  0.00  0.00     0.028 H 
ATOM     37  H14 non d ame     -11.007  14.641  64.126  0.00  0.00     0.028 H 
ATOM     38  H15 non d ame     -12.755  14.966  64.197  0.00  0.00     0.028 H 
ENDBRANCH  33  35
BRANCH  33  39
ATOM     39  C13 non d ame     -11.723  12.122  64.327  0.00  0.00    -0.071 C 
ATOM     40  H16 non d ame     -11.858  12.501  63.314  0.00  0.00     0.028 H 
ATOM     41  H17 non d ame     -10.678  11.849  64.478  0.00  0.00     0.028 H 
ATOM     42  H18 non d ame     -12.353  11.245  64.473  0.00  0.00     0.028 H 
ENDBRANCH  33  39
ENDBRANCH   7  33
ENDBRANCH   4   7
ENDBRANCH   1   3
BRANCH   1  43
ATOM     43  C15 non d ame      -9.369   9.150  68.131  0.00  0.00     0.240 C 
ATOM     44  O5  non d ame      -8.345   9.717  68.341  0.00  0.00    -0.271 OA
ATOM     45  N6  non d ame      -9.972   8.292  69.191  0.00  0.00    -0.355 N 
ATOM     46  H46 non d ame     -10.843   7.809  69.026  0.00  0.00     0.162 HD
BRANCH  45  47
ATOM     47  C20 non d ame      -9.287   8.146  70.493  0.00  0.00     0.013 C 
ATOM     48  H30 non d ame      -8.334   8.672  70.432  0.00  0.00     0.072 H 
BRANCH  47  49
ATOM     49  C21 non d ame      -9.050   6.679  70.772  0.00  0.00    -0.038 C 
ATOM     50  H31 non d ame      -9.244   6.547  71.837  0.00  0.00     0.036 H 
ATOM     51  H32 non d ame      -9.650   6.140  70.038  0.00  0.00     0.036 H 
BRANCH  49  52
ATOM     52  C22 non d ame      -7.585   6.253  70.537  0.00  0.00     0.018 C 
ATOM     53  H33 non d ame      -6.976   6.975  71.082  0.00  0.00     0.048 H 
ATOM     54  H34 non d ame      -7.540   5.195  70.798  0.00  0.00     0.048 H 
BRANCH  52  55
ATOM     55  C23 non d ame      -7.136   6.350  69.053  0.00  0.00     0.259 C 
ATOM     56  O7  non d ame      -6.039   6.714  68.778  0.00  0.00    -0.265 OA
BRANCH  55  57
ATOM     57  O8  non d ame      -8.056   6.011  68.022  0.00  0.00    -0.317 OA
BRANCH  57  58
ATOM     58  C29 non d ame      -7.702   4.836  67.287  0.00  0.00     0.052 C 
ATOM     59  H47 non d ame      -6.746   4.510  67.694  0.00  0.00     0.082 H 
ATOM     60  H48 non d ame      -8.571   4.180  67.345  0.00  0.00     0.082 H 
BRANCH  58  61
ATOM     61  C35 non d ame      -7.493   5.243  65.805  0.00  0.00    -0.034 A 
ATOM     62  C30 non d ame      -8.533   5.105  64.891  0.00  0.00    -0.075 A 
ATOM     63  C31 non d ame      -8.345   5.471  63.559  0.00  0.00    -0.082 A 
ATOM     64  H49 non d ame      -9.494   4.710  65.218  0.00  0.00     0.084 H 
ATOM     65  C32 non d ame      -7.110   5.975  63.141  0.00  0.00    -0.083 A 
ATOM     66  H50 non d ame      -9.162   5.363  62.846  0.00  0.00     0.083 H 
ATOM     67  C33 non d ame      -6.074   6.108  64.056  0.00  0.00    -0.082 A 
ATOM     68  H51 non d ame      -6.955   6.263  62.102  0.00  0.00     0.083 H 
ATOM     69  C34 non d ame      -6.259   5.746  65.389  0.00  0.00    -0.075 A 
ATOM     70  H52 non d ame      -5.111   6.499  63.726  0.00  0.00     0.083 H 
ATOM     71  H53 non d ame      -5.440   5.855  66.102  0.00  0.00     0.084 H 
ENDBRANCH  58  61
ENDBRANCH  57  58
ENDBRANCH  55  57
ENDBRANCH  52  55
ENDBRANCH  49  52
ENDBRANCH  47  49
BRANCH  47  72
ATOM     72  C24 non d ame     -10.152   8.743  71.601  0.00  0.00    -0.039 C 
ATOM     73  H35 non d ame     -10.124   8.019  72.414  0.00  0.00     0.036 H 
ATOM     74  H36 non d ame      -9.770   9.752  71.757  0.00  0.00     0.036 H 
BRANCH  72  75
ATOM     75  C25 non d ame     -11.683   8.883  71.147  0.00  0.00    -0.001 C 
ATOM     76  C26 non d ame     -12.101  10.472  71.067  0.00  0.00    -0.035 C 
ATOM     77  C27 non d ame     -13.238  10.660  71.777  0.00  0.00     0.085 C 
ATOM     78  H38 non d ame     -11.367  11.078  71.597  0.00  0.00     0.036 H 
ATOM     79  H39 non d ame     -12.390  10.732  70.049  0.00  0.00     0.036 H 
ATOM     80  N5  non d ame     -13.456   9.414  72.602  0.00  0.00    -0.049 N 
ATOM     81  H40 non d ame     -13.031  11.496  72.445  0.00  0.00     0.075 H 
ATOM     82  H41 non d ame     -14.034  10.738  71.037  0.00  0.00     0.075 H 
ATOM     83  C28 non d ame     -12.473   8.293  71.980  0.00  0.00     0.193 C 
ATOM     84  H42 non d ame     -13.143   9.632  73.537  0.00  0.00     0.280 HD
ATOM     85  H43 non d ame     -14.411   9.128  72.443  0.00  0.00     0.280 HD
ATOM     86  H44 non d ame     -12.870   7.498  71.349  0.00  0.00     0.129 H 
ATOM     87  H37 non d ame     -11.914   8.266  70.279  0.00  0.00     0.046 H 
BRANCH  83  88
ATOM     88  O6  non d ame     -11.759   7.631  73.025  0.00  0.00    -0.369 OA
ATOM     89  H45 non d ame     -12.093   6.737  73.124  0.00  0.00     0.212 HD
ENDBRANCH  83  88
ENDBRANCH  72  75
ENDBRANCH  47  72
ENDBRANCH  45  47
ENDBRANCH   1  43
BRANCH   1  90
ATOM     90  C16 non d ame      -9.256   8.631  65.673  0.00  0.00    -0.035 C 
ATOM     91  H21 non d ame      -8.513   8.038  66.207  0.00  0.00     0.037 H 
ATOM     92  H22 non d ame      -9.983   8.140  65.027  0.00  0.00     0.037 H 
BRANCH  90  93
ATOM     93  C17 non d ame      -8.460   9.624  64.769  0.00  0.00    -0.059 C 
ATOM     94  H23 non d ame      -8.828  10.629  64.978  0.00  0.00     0.038 H 
BRANCH  93  95
ATOM     95  C18 non d ame      -6.929   9.604  65.074  0.00  0.00    -0.073 C 
ATOM     96  H24 non d ame      -6.752   9.067  66.006  0.00  0.00     0.028 H 
ATOM     97  H25 non d ame      -6.403   9.102  64.262  0.00  0.00     0.028 H 
ATOM     98  H26 non d ame      -6.563  10.626  65.167  0.00  0.00     0.028 H 
ENDBRANCH  93  95
BRANCH  93  99
ATOM     99  C19 non d ame      -8.724   9.344  63.286  0.00  0.00    -0.073 C 
ATOM    100  H27 non d ame      -8.953   8.287  63.152  0.00  0.00     0.028 H 
ATOM    101  H28 non d ame      -9.569   9.945  62.948  0.00  0.00     0.028 H 
ATOM    102  H29 non d ame      -7.839   9.601  62.705  0.00  0.00     0.028 H 
ENDBRANCH  93  99
ENDBRANCH  90  93
ENDBRANCH   1  90
TORSDOF 26
ENDMDL
MODEL 9
REMARK VINA RESULT:      -5.8      2.529      5.983
REMARK  26 active torsions:
REMARK  status: ('A' for Active; 'I' for Inactive)
REMARK    1  A    between atoms: C2_2  and  C3_3 
REMARK    2  A    between atoms: C4_6  and  C5_7 
REMARK       I    between atoms: C5_7  and  N2_9 
REMARK    3  A    between atoms: N2_9  and  C6_10 
REMARK    4  A    between atoms: C6_10  and  C7_11 
REMARK    5  A    between atoms: C6_10  and  C8_13 
REMARK       I    between atoms: C7_11  and  N3_14 
REMARK    6  A    between atoms: N3_14  and  C9_15 
REMARK    7  A    between atoms: C9_15  and  C10_16 
REMARK    8  A    between atoms: C9_15  and  C11_18 
REMARK       I    between atoms: C10_16  and  N4_21 
REMARK    9  A    between atoms: C11_18  and  C12_19 
REMARK   10  A    between atoms: C11_18  and  C13_20 
REMARK   11  A    between atoms: N4_21  and  C14_22 
REMARK   12  A    between atoms: C14_22  and  C15_23 
REMARK   13  A    between atoms: C14_22  and  C16_25 
REMARK       I    between atoms: C15_23  and  N6_40 
REMARK   14  A    between atoms: C16_25  and  C17_26 
REMARK   15  A    between atoms: C17_26  and  C18_27 
REMARK   16  A    between atoms: C17_26  and  C19_28 
REMARK   17  A    between atoms: C20_29  and  C21_30 
REMARK   18  A    between atoms: C20_29  and  C24_33 
REMARK   19  A    between atoms: C20_29  and  N6_40 
REMARK   20  A    between atoms: C21_30  and  C22_31 
REMARK   21  A    between atoms: C22_31  and  C23_32 
REMARK   22  A    between atoms: C23_32  and  O8_43 
REMARK   23  A    between atoms: C24_33  and  C25_34 
REMARK   24  A    between atoms: C28_38  and  O6_39 
REMARK   25  A    between atoms: C29_42  and  O8_43 
REMARK   26  A    between atoms: C29_42  and  C35_49 
ROOT
ATOM      1  C14 non d ame      -8.320   6.370  63.976  0.00  0.00     0.089 C 
ATOM      2  H20 non d ame      -9.004   6.493  63.136  0.00  0.00     0.087 H 
ENDROOT
BRANCH   1   3
ATOM      3  N4  non d ame      -7.966   7.698  64.453  0.00  0.00    -0.346 N 
ATOM      4  C10 non d ame      -8.122   8.898  63.552  0.00  0.00     0.241 C 
ATOM      5  O4  non d ame      -8.533   8.768  62.445  0.00  0.00    -0.271 OA
ATOM      6  H19 non d ame      -7.616   7.787  65.397  0.00  0.00     0.163 HD
BRANCH   4   7
ATOM      7  C9  non d ame      -7.756  10.266  64.063  0.00  0.00     0.092 C 
ATOM      8  H11 non d ame      -7.472  10.899  63.223  0.00  0.00     0.088 H 
BRANCH   7   9
ATOM      9  N3  non d ame      -8.929  10.883  64.691  0.00  0.00    -0.346 N 
ATOM     10  C7  non d ame      -9.817  11.706  63.909  0.00  0.00     0.240 C 
ATOM     11  O3  non d ame      -9.603  11.884  62.772  0.00  0.00    -0.271 OA
ATOM     12  H10 non d ame      -9.125  10.740  65.672  0.00  0.00     0.163 HD
BRANCH  10  13
ATOM     13  C6  non d ame     -11.061  12.362  64.585  0.00  0.00     0.086 C 
ATOM     14  H6  non d ame     -11.419  11.799  65.447  0.00  0.00     0.086 H 
BRANCH  13  15
ATOM     15  N2  non d ame     -10.691  13.680  65.074  0.00  0.00    -0.343 N 
ATOM     16  C5  non d ame     -11.435  14.270  66.188  0.00  0.00     0.273 C 
ATOM     17  O2  non d ame     -12.331  13.679  66.683  0.00  0.00    -0.266 OA
ATOM     18  H5  non d ame      -9.926  14.180  64.644  0.00  0.00     0.163 HD
BRANCH  16  19
ATOM     19  C4  non d ame     -11.054  15.662  66.717  0.00  0.00     0.154 A 
ATOM     20  C1  non d ame     -10.480  16.742  65.974  0.00  0.00    -0.017 A 
ATOM     21  C2  non d ame     -10.323  17.787  66.911  0.00  0.00     0.077 A 
ATOM     22  H1  non d ame     -10.217  16.764  64.916  0.00  0.00     0.091 H 
ATOM     23  O1  non d ame     -10.761  17.349  68.056  0.00  0.00    -0.218 OA
ATOM     24  N1  non d ame     -11.191  16.111  67.968  0.00  0.00    -0.123 NA
BRANCH  21  25
ATOM     25  C3  non d ame      -9.751  19.170  66.633  0.00  0.00    -0.029 C 
ATOM     26  H2  non d ame      -9.412  19.222  65.598  0.00  0.00     0.036 H 
ATOM     27  H3  non d ame     -10.522  19.922  66.800  0.00  0.00     0.036 H 
ATOM     28  H4  non d ame      -8.910  19.358  67.301  0.00  0.00     0.036 H 
ENDBRANCH  21  25
ENDBRANCH  16  19
ENDBRANCH  13  15
BRANCH  13  29
ATOM     29  C8  non d ame     -12.179  12.480  63.581  0.00  0.00    -0.049 C 
ATOM     30  H7  non d ame     -13.109  12.718  64.097  0.00  0.00     0.030 H 
ATOM     31  H8  non d ame     -11.945  13.273  62.869  0.00  0.00     0.030 H 
ATOM     32  H9  non d ame     -12.291  11.536  63.049  0.00  0.00     0.030 H 
ENDBRANCH  13  29
ENDBRANCH  10  13
ENDBRANCH   7   9
BRANCH   7  33
ATOM     33  C11 non d ame      -6.614  10.140  65.113  0.00  0.00    -0.033 C 
ATOM     34  H12 non d ame      -6.600   9.106  65.460  0.00  0.00     0.042 H 
BRANCH  33  35
ATOM     35  C12 non d ame      -5.221  10.441  64.477  0.00  0.00    -0.071 C 
ATOM     36  H13 non d ame      -5.290  11.335  63.859  0.00  0.00     0.028 H 
ATOM     37  H14 non d ame      -4.488  10.601  65.267  0.00  0.00     0.028 H 
ATOM     38  H15 non d ame      -4.913   9.595  63.862  0.00  0.00     0.028 H 
ENDBRANCH  33  35
BRANCH  33  39
ATOM     39  C13 non d ame      -6.884  11.060  66.347  0.00  0.00    -0.071 C 
ATOM     40  H16 non d ame      -6.063  10.966  67.056  0.00  0.00     0.028 H 
ATOM     41  H17 non d ame      -6.965  12.096  66.017  0.00  0.00     0.028 H 
ATOM     42  H18 non d ame      -7.815  10.758  66.827  0.00  0.00     0.028 H 
ENDBRANCH  33  39
ENDBRANCH   7  33
ENDBRANCH   4   7
ENDBRANCH   1   3
BRANCH   1  43
ATOM     43  C15 non d ame      -8.966   5.579  65.149  0.00  0.00     0.240 C 
ATOM     44  O5  non d ame      -9.168   4.412  65.035  0.00  0.00    -0.271 OA
ATOM     45  N6  non d ame      -9.325   6.272  66.418  0.00  0.00    -0.355 N 
ATOM     46  H46 non d ame      -9.155   7.261  66.528  0.00  0.00     0.162 HD
BRANCH  45  47
ATOM     47  C20 non d ame      -9.938   5.505  67.524  0.00  0.00     0.013 C 
ATOM     48  H30 non d ame     -10.640   4.794  67.090  0.00  0.00     0.072 H 
BRANCH  47  49
ATOM     49  C21 non d ame     -10.669   6.455  68.447  0.00  0.00    -0.038 C 
ATOM     50  H31 non d ame      -9.917   7.161  68.800  0.00  0.00     0.036 H 
ATOM     51  H32 non d ame     -11.529   6.812  67.879  0.00  0.00     0.036 H 
BRANCH  49  52
ATOM     52  C22 non d ame     -11.235   5.755  69.701  0.00  0.00     0.018 C 
ATOM     53  H33 non d ame     -12.193   5.332  69.396  0.00  0.00     0.048 H 
ATOM     54  H34 non d ame     -10.440   5.101  70.059  0.00  0.00     0.048 H 
BRANCH  52  55
ATOM     55  C23 non d ame     -11.551   6.728  70.871  0.00  0.00     0.259 C 
ATOM     56  O7  non d ame     -12.673   6.906  71.220  0.00  0.00    -0.265 OA
BRANCH  55  57
ATOM     57  O8  non d ame     -10.485   7.416  71.513  0.00  0.00    -0.317 OA
BRANCH  57  58
ATOM     58  C29 non d ame     -10.800   8.759  71.891  0.00  0.00     0.052 C 
ATOM     59  H47 non d ame     -11.839   8.737  72.221  0.00  0.00     0.082 H 
ATOM     60  H48 non d ame     -10.016   9.062  72.585  0.00  0.00     0.082 H 
BRANCH  58  61
ATOM     61  C35 non d ame     -10.706   9.648  70.623  0.00  0.00    -0.034 A 
ATOM     62  C30 non d ame     -11.804  10.397  70.214  0.00  0.00    -0.075 A 
ATOM     63  C31 non d ame     -11.719  11.195  69.075  0.00  0.00    -0.082 A 
ATOM     64  H49 non d ame     -12.731  10.357  70.785  0.00  0.00     0.084 H 
ATOM     65  C32 non d ame     -10.530  11.242  68.343  0.00  0.00    -0.083 A 
ATOM     66  H50 non d ame     -12.581  11.782  68.758  0.00  0.00     0.083 H 
ATOM     67  C33 non d ame      -9.437  10.491  68.753  0.00  0.00    -0.082 A 
ATOM     68  H51 non d ame     -10.455  11.864  67.451  0.00  0.00     0.083 H 
ATOM     69  C34 non d ame      -9.517   9.693  69.892  0.00  0.00    -0.075 A 
ATOM     70  H52 non d ame      -8.511  10.528  68.178  0.00  0.00     0.083 H 
ATOM     71  H53 non d ame      -8.653   9.106  70.209  0.00  0.00     0.084 H 
ENDBRANCH  58  61
ENDBRANCH  57  58
ENDBRANCH  55  57
ENDBRANCH  52  55
ENDBRANCH  49  52
ENDBRANCH  47  49
BRANCH  47  72
ATOM     72  C24 non d ame      -8.852   4.770  68.306  0.00  0.00    -0.039 C 
ATOM     73  H35 non d ame      -7.931   4.930  67.745  0.00  0.00     0.036 H 
ATOM     74  H36 non d ame      -8.935   5.132  69.331  0.00  0.00     0.036 H 
BRANCH  72  75
ATOM     75  C25 non d ame      -9.114   3.190  68.341  0.00  0.00    -0.001 C 
ATOM     76  C26 non d ame      -9.253   2.679  69.898  0.00  0.00    -0.035 C 
ATOM     77  C27 non d ame      -8.418   1.631  70.090  0.00  0.00     0.085 C 
ATOM     78  H38 non d ame      -8.867   3.440  70.576  0.00  0.00     0.036 H 
ATOM     79  H39 non d ame     -10.242   2.251  70.065  0.00  0.00     0.036 H 
ATOM     80  N5  non d ame      -7.485   1.586  68.904  0.00  0.00    -0.049 N 
ATOM     81  H40 non d ame      -7.844   1.874  70.985  0.00  0.00     0.075 H 
ATOM     82  H41 non d ame      -9.053   0.745  70.074  0.00  0.00     0.075 H 
ATOM     83  C28 non d ame      -8.145   2.543  67.783  0.00  0.00     0.193 C 
ATOM     84  H42 non d ame      -6.615   2.001  69.208  0.00  0.00     0.280 HD
ATOM     85  H43 non d ame      -7.499   0.636  68.564  0.00  0.00     0.280 HD
ATOM     86  H44 non d ame      -8.662   2.114  66.924  0.00  0.00     0.129 H 
ATOM     87  H37 non d ame      -9.898   2.886  67.648  0.00  0.00     0.046 H 
BRANCH  83  88
ATOM     88  O6  non d ame      -7.157   3.417  67.237  0.00  0.00    -0.369 OA
ATOM     89  H45 non d ame      -7.579   4.060  66.664  0.00  0.00     0.212 HD
ENDBRANCH  83  88
ENDBRANCH  72  75
ENDBRANCH  47  72
ENDBRANCH  45  47
ENDBRANCH   1  43
BRANCH   1  90
ATOM     90  C16 non d ame      -7.059   5.657  63.511  0.00  0.00    -0.035 C 
ATOM     91  H21 non d ame      -7.183   4.620  63.824  0.00  0.00     0.037 H 
ATOM     92  H22 non d ame      -6.964   5.899  62.454  0.00  0.00     0.037 H 
BRANCH  90  93
ATOM     93  C17 non d ame      -5.757   6.172  64.202  0.00  0.00    -0.059 C 
ATOM     94  H23 non d ame      -6.051   6.898  64.961  0.00  0.00     0.038 H 
BRANCH  93  95
ATOM     95  C18 non d ame      -4.974   5.026  64.917  0.00  0.00    -0.073 C 
ATOM     96  H24 non d ame      -3.987   5.387  65.208  0.00  0.00     0.028 H 
ATOM     97  H25 non d ame      -5.521   4.711  65.806  0.00  0.00     0.028 H 
ATOM     98  H26 non d ame      -4.867   4.180  64.238  0.00  0.00     0.028 H 
ENDBRANCH  93  95
BRANCH  93  99
ATOM     99  C19 non d ame      -4.859   6.903  63.199  0.00  0.00    -0.073 C 
ATOM    100  H27 non d ame      -3.935   7.204  63.692  0.00  0.00     0.028 H 
ATOM    101  H28 non d ame      -4.629   6.238  62.367  0.00  0.00     0.028 H 
ATOM    102  H29 non d ame      -5.376   7.787  62.827  0.00  0.00     0.028 H 
ENDBRANCH  93  99
ENDBRANCH  90  93
ENDBRANCH   1  90
TORSDOF 26
ENDMDL
MODEL 10
REMARK VINA RESULT:      -5.8      2.622      6.516
REMARK  26 active torsions:
REMARK  status: ('A' for Active; 'I' for Inactive)
REMARK    1  A    between atoms: C2_2  and  C3_3 
REMARK    2  A    between atoms: C4_6  and  C5_7 
REMARK       I    between atoms: C5_7  and  N2_9 
REMARK    3  A    between atoms: N2_9  and  C6_10 
REMARK    4  A    between atoms: C6_10  and  C7_11 
REMARK    5  A    between atoms: C6_10  and  C8_13 
REMARK       I    between atoms: C7_11  and  N3_14 
REMARK    6  A    between atoms: N3_14  and  C9_15 
REMARK    7  A    between atoms: C9_15  and  C10_16 
REMARK    8  A    between atoms: C9_15  and  C11_18 
REMARK       I    between atoms: C10_16  and  N4_21 
REMARK    9  A    between atoms: C11_18  and  C12_19 
REMARK   10  A    between atoms: C11_18  and  C13_20 
REMARK   11  A    between atoms: N4_21  and  C14_22 
REMARK   12  A    between atoms: C14_22  and  C15_23 
REMARK   13  A    between atoms: C14_22  and  C16_25 
REMARK       I    between atoms: C15_23  and  N6_40 
REMARK   14  A    between atoms: C16_25  and  C17_26 
REMARK   15  A    between atoms: C17_26  and  C18_27 
REMARK   16  A    between atoms: C17_26  and  C19_28 
REMARK   17  A    between atoms: C20_29  and  C21_30 
REMARK   18  A    between atoms: C20_29  and  C24_33 
REMARK   19  A    between atoms: C20_29  and  N6_40 
REMARK   20  A    between atoms: C21_30  and  C22_31 
REMARK   21  A    between atoms: C22_31  and  C23_32 
REMARK   22  A    between atoms: C23_32  and  O8_43 
REMARK   23  A    between atoms: C24_33  and  C25_34 
REMARK   24  A    between atoms: C28_38  and  O6_39 
REMARK   25  A    between atoms: C29_42  and  O8_43 
REMARK   26  A    between atoms: C29_42  and  C35_49 
ROOT
ATOM      1  C14 non d ame      -7.993   6.446  63.592  0.00  0.00     0.089 C 
ATOM      2  H20 non d ame      -8.621   6.620  62.718  0.00  0.00     0.087 H 
ENDROOT
BRANCH   1   3
ATOM      3  N4  non d ame      -7.915   7.697  64.332  0.00  0.00    -0.346 N 
ATOM      4  C10 non d ame      -8.372   8.987  63.698  0.00  0.00     0.241 C 
ATOM      5  O4  non d ame      -8.797   8.993  62.589  0.00  0.00    -0.271 OA
ATOM      6  H19 non d ame      -7.549   7.670  65.273  0.00  0.00     0.163 HD
BRANCH   4   7
ATOM      7  C9  non d ame      -8.290  10.271  64.480  0.00  0.00     0.092 C 
ATOM      8  H11 non d ame      -7.921  11.064  63.829  0.00  0.00     0.088 H 
BRANCH   7   9
ATOM      9  N3  non d ame      -9.633  10.663  64.919  0.00  0.00    -0.346 N 
ATOM     10  C7  non d ame     -10.386  11.632  64.162  0.00  0.00     0.240 C 
ATOM     11  O3  non d ame      -9.925  12.109  63.197  0.00  0.00    -0.271 OA
ATOM     12  H10 non d ame     -10.042  10.262  65.751  0.00  0.00     0.163 HD
BRANCH  10  13
ATOM     13  C6  non d ame     -11.812  12.047  64.637  0.00  0.00     0.086 C 
ATOM     14  H6  non d ame     -12.241  11.344  65.351  0.00  0.00     0.086 H 
BRANCH  13  15
ATOM     15  N2  non d ame     -11.728  13.329  65.317  0.00  0.00    -0.343 N 
ATOM     16  C5  non d ame     -11.395  13.369  66.743  0.00  0.00     0.273 C 
ATOM     17  O2  non d ame     -11.200  12.364  67.334  0.00  0.00    -0.266 OA
ATOM     18  H5  non d ame     -11.898  14.183  64.805  0.00  0.00     0.163 HD
BRANCH  16  19
ATOM     19  C4  non d ame     -11.300  14.717  67.474  0.00  0.00     0.154 A 
ATOM     20  C1  non d ame     -10.478  15.834  67.123  0.00  0.00    -0.017 A 
ATOM     21  C2  non d ame     -10.757  16.814  68.103  0.00  0.00     0.077 A 
ATOM     22  H1  non d ame      -9.784  15.922  66.287  0.00  0.00     0.091 H 
ATOM     23  O1  non d ame     -11.640  16.308  68.915  0.00  0.00    -0.218 OA
ATOM     24  N1  non d ame     -11.971  15.085  68.569  0.00  0.00    -0.123 NA
BRANCH  21  25
ATOM     25  C3  non d ame     -10.142  18.203  68.190  0.00  0.00    -0.029 C 
ATOM     26  H2  non d ame     -10.929  18.941  68.353  0.00  0.00     0.036 H 
ATOM     27  H3  non d ame      -9.435  18.236  69.019  0.00  0.00     0.036 H 
ATOM     28  H4  non d ame      -9.620  18.429  67.259  0.00  0.00     0.036 H 
ENDBRANCH  21  25
ENDBRANCH  16  19
ENDBRANCH  13  15
BRANCH  13  29
ATOM     29  C8  non d ame     -12.731  12.154  63.447  0.00  0.00    -0.049 C 
ATOM     30  H7  non d ame     -12.622  11.267  62.822  0.00  0.00     0.030 H 
ATOM     31  H8  non d ame     -13.763  12.232  63.791  0.00  0.00     0.030 H 
ATOM     32  H9  non d ame     -12.473  13.039  62.867  0.00  0.00     0.030 H 
ENDBRANCH  13  29
ENDBRANCH  10  13
ENDBRANCH   7   9
BRANCH   7  33
ATOM     33  C11 non d ame      -7.379  10.063  65.725  0.00  0.00    -0.033 C 
ATOM     34  H12 non d ame      -7.297   8.990  65.896  0.00  0.00     0.042 H 
BRANCH  33  35
ATOM     35  C12 non d ame      -5.940  10.611  65.474  0.00  0.00    -0.071 C 
ATOM     36  H13 non d ame      -5.313   9.814  65.074  0.00  0.00     0.028 H 
ATOM     37  H14 non d ame      -5.983  11.432  64.759  0.00  0.00     0.028 H 
ATOM     38  H15 non d ame      -5.519  10.969  66.413  0.00  0.00     0.028 H 
ENDBRANCH  33  35
BRANCH  33  39
ATOM     39  C13 non d ame      -8.017  10.708  66.997  0.00  0.00    -0.071 C 
ATOM     40  H16 non d ame      -8.048  11.790  66.879  0.00  0.00     0.028 H 
ATOM     41  H17 non d ame      -9.029  10.326  67.130  0.00  0.00     0.028 H 
ATOM     42  H18 non d ame      -7.416  10.455  67.871  0.00  0.00     0.028 H 
ENDBRANCH  33  39
ENDBRANCH   7  33
ENDBRANCH   4   7
ENDBRANCH   1   3
BRANCH   1  43
ATOM     43  C15 non d ame      -8.579   5.352  64.529  0.00  0.00     0.240 C 
ATOM     44  O5  non d ame      -9.372   4.573  64.105  0.00  0.00    -0.271 OA
ATOM     45  N6  non d ame      -8.147   5.269  65.953  0.00  0.00    -0.355 N 
ATOM     46  H46 non d ame      -7.472   5.922  66.323  0.00  0.00     0.162 HD
BRANCH  45  47
ATOM     47  C20 non d ame      -8.713   4.222  66.831  0.00  0.00     0.013 C 
ATOM     48  H30 non d ame      -8.755   3.293  66.261  0.00  0.00     0.072 H 
BRANCH  47  49
ATOM     49  C21 non d ame     -10.105   4.627  67.259  0.00  0.00    -0.038 C 
ATOM     50  H31 non d ame     -10.483   5.271  66.465  0.00  0.00     0.036 H 
ATOM     51  H32 non d ame     -10.621   3.696  67.500  0.00  0.00     0.036 H 
BRANCH  49  52
ATOM     52  C22 non d ame     -10.113   5.475  68.550  0.00  0.00     0.018 C 
ATOM     53  H33 non d ame     -10.972   5.129  69.126  0.00  0.00     0.048 H 
ATOM     54  H34 non d ame      -9.108   5.389  68.964  0.00  0.00     0.048 H 
BRANCH  52  55
ATOM     55  C23 non d ame     -10.347   6.991  68.301  0.00  0.00     0.259 C 
ATOM     56  O7  non d ame     -10.799   7.369  67.269  0.00  0.00    -0.265 OA
BRANCH  55  57
ATOM     57  O8  non d ame     -10.003   7.925  69.316  0.00  0.00    -0.317 OA
BRANCH  57  58
ATOM     58  C29 non d ame     -10.233   7.453  70.646  0.00  0.00     0.052 C 
ATOM     59  H47 non d ame     -10.214   6.365  70.581  0.00  0.00     0.082 H 
ATOM     60  H48 non d ame      -9.509   7.974  71.273  0.00  0.00     0.082 H 
BRANCH  58  61
ATOM     61  C35 non d ame     -11.658   7.895  71.072  0.00  0.00    -0.034 A 
ATOM     62  C30 non d ame     -11.896   9.212  71.449  0.00  0.00    -0.075 A 
ATOM     63  C31 non d ame     -13.176   9.610  71.831  0.00  0.00    -0.082 A 
ATOM     64  H49 non d ame     -11.079   9.933  71.445  0.00  0.00     0.084 H 
ATOM     65  C32 non d ame     -14.221   8.682  71.838  0.00  0.00    -0.083 A 
ATOM     66  H50 non d ame     -13.359  10.643  72.125  0.00  0.00     0.083 H 
ATOM     67  C33 non d ame     -13.980   7.367  71.464  0.00  0.00    -0.082 A 
ATOM     68  H51 non d ame     -15.225   8.984  72.135  0.00  0.00     0.083 H 
ATOM     69  C34 non d ame     -12.702   6.967  71.079  0.00  0.00    -0.075 A 
ATOM     70  H52 non d ame     -14.797   6.645  71.472  0.00  0.00     0.083 H 
ATOM     71  H53 non d ame     -12.520   5.932  70.785  0.00  0.00     0.084 H 
ENDBRANCH  58  61
ENDBRANCH  57  58
ENDBRANCH  55  57
ENDBRANCH  52  55
ENDBRANCH  49  52
ENDBRANCH  47  49
BRANCH  47  72
ATOM     72  C24 non d ame      -7.830   4.049  68.064  0.00  0.00    -0.039 C 
ATOM     73  H35 non d ame      -8.057   4.899  68.706  0.00  0.00     0.036 H 
ATOM     74  H36 non d ame      -8.018   3.034  68.416  0.00  0.00     0.036 H 
BRANCH  72  75
ATOM     75  C25 non d ame      -6.273   4.139  67.695  0.00  0.00    -0.001 C 
ATOM     76  C26 non d ame      -5.782   2.738  66.988  0.00  0.00    -0.035 C 
ATOM     77  C27 non d ame      -4.676   2.290  67.629  0.00  0.00     0.085 C 
ATOM     78  H38 non d ame      -6.516   1.952  67.168  0.00  0.00     0.036 H 
ATOM     79  H39 non d ame      -5.429   2.933  65.976  0.00  0.00     0.036 H 
ATOM     80  N5  non d ame      -4.557   3.080  68.910  0.00  0.00    -0.049 N 
ATOM     81  H40 non d ame      -4.881   1.247  67.872  0.00  0.00     0.075 H 
ATOM     82  H41 non d ame      -3.840   2.544  66.978  0.00  0.00     0.075 H 
ATOM     83  C28 non d ame      -5.554   4.340  68.749  0.00  0.00     0.193 C 
ATOM     84  H42 non d ame      -4.908   2.485  69.647  0.00  0.00     0.280 HD
ATOM     85  H43 non d ame      -3.609   3.424  68.948  0.00  0.00     0.280 HD
ATOM     86  H44 non d ame      -5.160   5.334  68.534  0.00  0.00     0.129 H 
ATOM     87  H37 non d ame      -6.024   5.067  67.181  0.00  0.00     0.046 H 
BRANCH  83  88
ATOM     88  O6  non d ame      -6.351   4.491  69.924  0.00  0.00    -0.369 OA
ATOM     89  H45 non d ame      -6.092   5.292  70.385  0.00  0.00     0.212 HD
ENDBRANCH  83  88
ENDBRANCH  72  75
ENDBRANCH  47  72
ENDBRANCH  45  47
ENDBRANCH   1  43
BRANCH   1  90
ATOM     90  C16 non d ame      -6.595   6.044  63.148  0.00  0.00    -0.035 C 
ATOM     91  H21 non d ame      -6.550   4.963  63.282  0.00  0.00     0.037 H 
ATOM     92  H22 non d ame      -6.472   6.475  62.155  0.00  0.00     0.037 H 
BRANCH  90  93
ATOM     93  C17 non d ame      -5.459   6.646  64.035  0.00  0.00    -0.059 C 
ATOM     94  H23 non d ame      -5.932   7.189  64.853  0.00  0.00     0.038 H 
BRANCH  93  95
ATOM     95  C18 non d ame      -4.549   5.541  64.659  0.00  0.00    -0.073 C 
ATOM     96  H24 non d ame      -3.519   5.898  64.698  0.00  0.00     0.028 H 
ATOM     97  H25 non d ame      -4.893   5.313  65.668  0.00  0.00     0.028 H 
ATOM     98  H26 non d ame      -4.599   4.640  64.047  0.00  0.00     0.028 H 
ENDBRANCH  93  95
BRANCH  93  99
ATOM     99  C19 non d ame      -4.625   7.656  63.243  0.00  0.00    -0.073 C 
ATOM    100  H27 non d ame      -3.879   8.104  63.899  0.00  0.00     0.028 H 
ATOM    101  H28 non d ame      -4.126   7.148  62.418  0.00  0.00     0.028 H 
ATOM    102  H29 non d ame      -5.277   8.435  62.849  0.00  0.00     0.028 H 
ENDBRANCH  93  99
ENDBRANCH  90  93
ENDBRANCH   1  90
TORSDOF 26
ENDMDL
MODEL 11
REMARK VINA RESULT:      -5.8      2.442      9.762
REMARK  26 active torsions:
REMARK  status: ('A' for Active; 'I' for Inactive)
REMARK    1  A    between atoms: C2_2  and  C3_3 
REMARK    2  A    between atoms: C4_6  and  C5_7 
REMARK       I    between atoms: C5_7  and  N2_9 
REMARK    3  A    between atoms: N2_9  and  C6_10 
REMARK    4  A    between atoms: C6_10  and  C7_11 
REMARK    5  A    between atoms: C6_10  and  C8_13 
REMARK       I    between atoms: C7_11  and  N3_14 
REMARK    6  A    between atoms: N3_14  and  C9_15 
REMARK    7  A    between atoms: C9_15  and  C10_16 
REMARK    8  A    between atoms: C9_15  and  C11_18 
REMARK       I    between atoms: C10_16  and  N4_21 
REMARK    9  A    between atoms: C11_18  and  C12_19 
REMARK   10  A    between atoms: C11_18  and  C13_20 
REMARK   11  A    between atoms: N4_21  and  C14_22 
REMARK   12  A    between atoms: C14_22  and  C15_23 
REMARK   13  A    between atoms: C14_22  and  C16_25 
REMARK       I    between atoms: C15_23  and  N6_40 
REMARK   14  A    between atoms: C16_25  and  C17_26 
REMARK   15  A    between atoms: C17_26  and  C18_27 
REMARK   16  A    between atoms: C17_26  and  C19_28 
REMARK   17  A    between atoms: C20_29  and  C21_30 
REMARK   18  A    between atoms: C20_29  and  C24_33 
REMARK   19  A    between atoms: C20_29  and  N6_40 
REMARK   20  A    between atoms: C21_30  and  C22_31 
REMARK   21  A    between atoms: C22_31  and  C23_32 
REMARK   22  A    between atoms: C23_32  and  O8_43 
REMARK   23  A    between atoms: C24_33  and  C25_34 
REMARK   24  A    between atoms: C28_38  and  O6_39 
REMARK   25  A    between atoms: C29_42  and  O8_43 
REMARK   26  A    between atoms: C29_42  and  C35_49 
ROOT
ATOM      1  C14 non d ame     -10.207   8.388  69.877  0.00  0.00     0.089 C 
ATOM      2  H20 non d ame     -11.222   8.146  70.189  0.00  0.00     0.087 H 
ENDROOT
BRANCH   1   3
ATOM      3  N4  non d ame      -9.642   7.197  69.261  0.00  0.00    -0.346 N 
ATOM      4  C10 non d ame     -10.456   5.930  69.164  0.00  0.00     0.241 C 
ATOM      5  O4  non d ame     -11.563   5.894  69.591  0.00  0.00    -0.271 OA
ATOM      6  H19 non d ame      -8.697   7.248  68.906  0.00  0.00     0.163 HD
BRANCH   4   7
ATOM      7  C9  non d ame      -9.858   4.709  68.518  0.00  0.00     0.092 C 
ATOM      8  H11 non d ame     -10.584   4.273  67.832  0.00  0.00     0.088 H 
BRANCH   7   9
ATOM      9  N3  non d ame      -8.691   5.098  67.720  0.00  0.00    -0.346 N 
ATOM     10  C7  non d ame      -8.586   4.683  66.344  0.00  0.00     0.240 C 
ATOM     11  O3  non d ame      -9.431   4.032  65.862  0.00  0.00    -0.271 OA
ATOM     12  H10 non d ame      -7.953   5.658  68.123  0.00  0.00     0.163 HD
BRANCH  10  13
ATOM     13  C6  non d ame      -7.340   5.098  65.502  0.00  0.00     0.086 C 
ATOM     14  H6  non d ame      -7.167   4.440  64.650  0.00  0.00     0.086 H 
BRANCH  13  15
ATOM     15  N2  non d ame      -7.560   6.429  64.961  0.00  0.00    -0.343 N 
ATOM     16  C5  non d ame      -7.977   6.579  63.564  0.00  0.00     0.273 C 
ATOM     17  O2  non d ame      -8.130   5.624  62.885  0.00  0.00    -0.266 OA
ATOM     18  H5  non d ame      -7.425   7.239  65.547  0.00  0.00     0.163 HD
BRANCH  16  19
ATOM     19  C4  non d ame      -8.215   7.980  62.979  0.00  0.00     0.154 A 
ATOM     20  C1  non d ame      -8.845   9.091  63.625  0.00  0.00    -0.017 A 
ATOM     21  C2  non d ame      -8.815  10.132  62.670  0.00  0.00     0.077 A 
ATOM     22  H1  non d ame      -9.260   9.136  64.632  0.00  0.00     0.091 H 
ATOM     23  O1  non d ame      -8.233   9.664  61.604  0.00  0.00    -0.218 OA
ATOM     24  N1  non d ame      -7.874   8.410  61.761  0.00  0.00    -0.123 NA
BRANCH  21  25
ATOM     25  C3  non d ame      -9.361  11.541  62.855  0.00  0.00    -0.029 C 
ATOM     26  H2  non d ame      -8.556  12.206  63.168  0.00  0.00     0.036 H 
ATOM     27  H3  non d ame      -9.778  11.895  61.912  0.00  0.00     0.036 H 
ATOM     28  H4  non d ame     -10.142  11.532  63.616  0.00  0.00     0.036 H 
ENDBRANCH  21  25
ENDBRANCH  16  19
ENDBRANCH  13  15
BRANCH  13  29
ATOM     29  C8  non d ame      -6.113   5.093  66.378  0.00  0.00    -0.049 C 
ATOM     30  H7  non d ame      -5.750   4.072  66.490  0.00  0.00     0.030 H 
ATOM     31  H8  non d ame      -5.337   5.706  65.918  0.00  0.00     0.030 H 
ATOM     32  H9  non d ame      -6.364   5.499  67.357  0.00  0.00     0.030 H 
ENDBRANCH  13  29
ENDBRANCH  10  13
ENDBRANCH   7   9
BRANCH   7  33
ATOM     33  C11 non d ame      -9.417   3.702  69.620  0.00  0.00    -0.033 C 
ATOM     34  H12 non d ame     -10.182   3.709  70.397  0.00  0.00     0.042 H 
BRANCH  33  35
ATOM     35  C12 non d ame      -9.330   2.248  69.061  0.00  0.00    -0.071 C 
ATOM     36  H13 non d ame      -9.350   2.276  67.971  0.00  0.00     0.028 H 
ATOM     37  H14 non d ame      -8.402   1.784  69.395  0.00  0.00     0.028 H 
ATOM     38  H15 non d ame     -10.178   1.668  69.426  0.00  0.00     0.028 H 
ENDBRANCH  33  35
BRANCH  33  39
ATOM     39  C13 non d ame      -8.065   4.140  70.270  0.00  0.00    -0.071 C 
ATOM     40  H16 non d ame      -7.433   4.606  69.514  0.00  0.00     0.028 H 
ATOM     41  H17 non d ame      -8.260   4.853  71.071  0.00  0.00     0.028 H 
ATOM     42  H18 non d ame      -7.559   3.266  70.677  0.00  0.00     0.028 H 
ENDBRANCH  33  39
ENDBRANCH   7  33
ENDBRANCH   4   7
ENDBRANCH   1   3
BRANCH   1  43
ATOM     43  C15 non d ame     -10.171   9.546  68.840  0.00  0.00     0.240 C 
ATOM     44  O5  non d ame     -10.499   9.343  67.715  0.00  0.00    -0.271 OA
ATOM     45  N6  non d ame      -9.736  10.912  69.250  0.00  0.00    -0.355 N 
ATOM     46  H46 non d ame      -9.458  11.098  70.203  0.00  0.00     0.162 HD
BRANCH  45  47
ATOM     47  C20 non d ame      -9.708  12.003  68.252  0.00  0.00     0.013 C 
ATOM     48  H30 non d ame     -10.005  11.585  67.290  0.00  0.00     0.072 H 
BRANCH  47  49
ATOM     49  C21 non d ame      -8.306  12.562  68.160  0.00  0.00    -0.038 C 
ATOM     50  H31 non d ame      -8.105  13.014  69.132  0.00  0.00     0.036 H 
ATOM     51  H32 non d ame      -7.685  11.740  67.802  0.00  0.00     0.036 H 
BRANCH  49  52
ATOM     52  C22 non d ame      -8.179  13.692  67.116  0.00  0.00     0.018 C 
ATOM     53  H33 non d ame      -7.564  13.285  66.313  0.00  0.00     0.048 H 
ATOM     54  H34 non d ame      -9.198  14.020  66.910  0.00  0.00     0.048 H 
BRANCH  52  55
ATOM     55  C23 non d ame      -7.422  14.945  67.640  0.00  0.00     0.259 C 
ATOM     56  O7  non d ame      -6.292  15.140  67.328  0.00  0.00    -0.265 OA
BRANCH  55  57
ATOM     57  O8  non d ame      -8.090  15.850  68.509  0.00  0.00    -0.317 OA
BRANCH  57  58
ATOM     58  C29 non d ame      -7.564  17.180  68.482  0.00  0.00     0.052 C 
ATOM     59  H47 non d ame      -7.403  17.455  69.524  0.00  0.00     0.082 H 
ATOM     60  H48 non d ame      -6.722  17.150  67.791  0.00  0.00     0.082 H 
BRANCH  58  61
ATOM     61  C35 non d ame      -8.652  18.114  67.890  0.00  0.00    -0.034 A 
ATOM     62  C30 non d ame      -9.148  17.883  66.612  0.00  0.00    -0.075 A 
ATOM     63  C31 non d ame     -10.126  18.722  66.079  0.00  0.00    -0.082 A 
ATOM     64  H49 non d ame      -8.771  17.045  66.027  0.00  0.00     0.084 H 
ATOM     65  C32 non d ame     -10.606  19.798  66.831  0.00  0.00    -0.083 A 
ATOM     66  H50 non d ame     -10.513  18.537  65.078  0.00  0.00     0.083 H 
ATOM     67  C33 non d ame     -10.106  20.028  68.105  0.00  0.00    -0.082 A 
ATOM     68  H51 non d ame     -11.371  20.459  66.422  0.00  0.00     0.083 H 
ATOM     69  C34 non d ame      -9.131  19.189  68.642  0.00  0.00    -0.075 A 
ATOM     70  H52 non d ame     -10.481  20.869  68.688  0.00  0.00     0.083 H 
ATOM     71  H53 non d ame      -8.743  19.376  69.645  0.00  0.00     0.084 H 
ENDBRANCH  58  61
ENDBRANCH  57  58
ENDBRANCH  55  57
ENDBRANCH  52  55
ENDBRANCH  49  52
ENDBRANCH  47  49
BRANCH  47  72
ATOM     72  C24 non d ame     -10.673  13.110  68.670  0.00  0.00    -0.039 C 
ATOM     73  H35 non d ame     -11.103  12.778  69.615  0.00  0.00     0.036 H 
ATOM     74  H36 non d ame     -10.092  14.032  68.631  0.00  0.00     0.036 H 
BRANCH  72  75
ATOM     75  C25 non d ame     -11.881  13.268  67.630  0.00  0.00    -0.001 C 
ATOM     76  C26 non d ame     -11.625  12.304  66.322  0.00  0.00    -0.035 C 
ATOM     77  C27 non d ame     -11.756  13.049  65.199  0.00  0.00     0.085 C 
ATOM     78  H38 non d ame     -10.584  11.982  66.295  0.00  0.00     0.036 H 
ATOM     79  H39 non d ame     -12.426  11.569  66.237  0.00  0.00     0.036 H 
ATOM     80  N5  non d ame     -11.755  14.497  65.626  0.00  0.00    -0.049 N 
ATOM     81  H40 non d ame     -10.859  12.851  64.611  0.00  0.00     0.075 H 
ATOM     82  H41 non d ame     -12.737  12.799  64.797  0.00  0.00     0.075 H 
ATOM     83  C28 non d ame     -11.991  14.489  67.224  0.00  0.00     0.193 C 
ATOM     84  H42 non d ame     -10.827  14.850  65.440  0.00  0.00     0.280 HD
ATOM     85  H43 non d ame     -12.555  14.926  65.185  0.00  0.00     0.280 HD
ATOM     86  H44 non d ame     -12.963  14.751  67.641  0.00  0.00     0.129 H 
ATOM     87  H37 non d ame     -12.854  13.198  68.115  0.00  0.00     0.046 H 
BRANCH  83  88
ATOM     88  O6  non d ame     -11.054  15.357  67.864  0.00  0.00    -0.369 OA
ATOM     89  H45 non d ame     -10.727  14.940  68.664  0.00  0.00     0.212 HD
ENDBRANCH  83  88
ENDBRANCH  72  75
ENDBRANCH  47  72
ENDBRANCH  45  47
ENDBRANCH   1  43
BRANCH   1  90
ATOM     90  C16 non d ame      -9.371   8.763  71.091  0.00  0.00    -0.035 C 
ATOM     91  H21 non d ame      -8.410   8.269  70.944  0.00  0.00     0.037 H 
ATOM     92  H22 non d ame      -9.421   9.849  71.151  0.00  0.00     0.037 H 
BRANCH  90  93
ATOM     93  C17 non d ame      -9.944   8.219  72.438  0.00  0.00    -0.059 C 
ATOM     94  H23 non d ame      -9.654   8.914  73.226  0.00  0.00     0.038 H 
BRANCH  93  95
ATOM     95  C18 non d ame     -11.503   8.136  72.426  0.00  0.00    -0.073 C 
ATOM     96  H24 non d ame     -11.884   8.593  71.512  0.00  0.00     0.028 H 
ATOM     97  H25 non d ame     -11.812   7.091  72.464  0.00  0.00     0.028 H 
ATOM     98  H26 non d ame     -11.902   8.664  73.291  0.00  0.00     0.028 H 
ENDBRANCH  93  95
BRANCH  93  99
ATOM     99  C19 non d ame      -9.328   6.860  72.784  0.00  0.00    -0.073 C 
ATOM    100  H27 non d ame      -8.967   6.383  71.874  0.00  0.00     0.028 H 
ATOM    101  H28 non d ame      -8.497   7.003  73.475  0.00  0.00     0.028 H 
ATOM    102  H29 non d ame     -10.083   6.228  73.250  0.00  0.00     0.028 H 
ENDBRANCH  93  99
ENDBRANCH  90  93
ENDBRANCH   1  90
TORSDOF 26
ENDMDL
MODEL 12
REMARK VINA RESULT:      -5.8      3.109      7.706
REMARK  26 active torsions:
REMARK  status: ('A' for Active; 'I' for Inactive)
REMARK    1  A    between atoms: C2_2  and  C3_3 
REMARK    2  A    between atoms: C4_6  and  C5_7 
REMARK       I    between atoms: C5_7  and  N2_9 
REMARK    3  A    between atoms: N2_9  and  C6_10 
REMARK    4  A    between atoms: C6_10  and  C7_11 
REMARK    5  A    between atoms: C6_10  and  C8_13 
REMARK       I    between atoms: C7_11  and  N3_14 
REMARK    6  A    between atoms: N3_14  and  C9_15 
REMARK    7  A    between atoms: C9_15  and  C10_16 
REMARK    8  A    between atoms: C9_15  and  C11_18 
REMARK       I    between atoms: C10_16  and  N4_21 
REMARK    9  A    between atoms: C11_18  and  C12_19 
REMARK   10  A    between atoms: C11_18  and  C13_20 
REMARK   11  A    between atoms: N4_21  and  C14_22 
REMARK   12  A    between atoms: C14_22  and  C15_23 
REMARK   13  A    between atoms: C14_22  and  C16_25 
REMARK       I    between atoms: C15_23  and  N6_40 
REMARK   14  A    between atoms: C16_25  and  C17_26 
REMARK   15  A    between atoms: C17_26  and  C18_27 
REMARK   16  A    between atoms: C17_26  and  C19_28 
REMARK   17  A    between atoms: C20_29  and  C21_30 
REMARK   18  A    between atoms: C20_29  and  C24_33 
REMARK   19  A    between atoms: C20_29  and  N6_40 
REMARK   20  A    between atoms: C21_30  and  C22_31 
REMARK   21  A    between atoms: C22_31  and  C23_32 
REMARK   22  A    between atoms: C23_32  and  O8_43 
REMARK   23  A    between atoms: C24_33  and  C25_34 
REMARK   24  A    between atoms: C28_38  and  O6_39 
REMARK   25  A    between atoms: C29_42  and  O8_43 
REMARK   26  A    between atoms: C29_42  and  C35_49 
ROOT
ATOM      1  C14 non d ame      -8.080   6.586  68.679  0.00  0.00     0.089 C 
ATOM      2  H20 non d ame      -8.101   5.499  68.763  0.00  0.00     0.087 H 
ENDROOT
BRANCH   1   3
ATOM      3  N4  non d ame      -7.582   6.913  67.352  0.00  0.00    -0.346 N 
ATOM      4  C10 non d ame      -7.573   5.870  66.262  0.00  0.00     0.241 C 
ATOM      5  O4  non d ame      -7.970   4.773  66.480  0.00  0.00    -0.271 OA
ATOM      6  H19 non d ame      -7.246   7.852  67.188  0.00  0.00     0.163 HD
BRANCH   4   7
ATOM      7  C9  non d ame      -7.060   6.228  64.893  0.00  0.00     0.092 C 
ATOM      8  H11 non d ame      -7.814   5.972  64.149  0.00  0.00     0.088 H 
BRANCH   7   9
ATOM      9  N3  non d ame      -6.847   7.676  64.813  0.00  0.00    -0.346 N 
ATOM     10  C7  non d ame      -7.394   8.426  63.709  0.00  0.00     0.240 C 
ATOM     11  O3  non d ame      -8.006   7.879  62.874  0.00  0.00    -0.271 OA
ATOM     12  H10 non d ame      -6.320   8.161  65.524  0.00  0.00     0.163 HD
BRANCH  10  13
ATOM     13  C6  non d ame      -7.161   9.966  63.628  0.00  0.00     0.086 C 
ATOM     14  H6  non d ame      -6.976  10.313  62.611  0.00  0.00     0.086 H 
BRANCH  13  15
ATOM     15  N2  non d ame      -8.359  10.648  64.088  0.00  0.00    -0.343 N 
ATOM     16  C5  non d ame      -9.328  11.143  63.108  0.00  0.00     0.273 C 
ATOM     17  O2  non d ame      -9.133  10.990  61.952  0.00  0.00    -0.266 OA
ATOM     18  H5  non d ame      -8.517  10.777  65.077  0.00  0.00     0.163 HD
BRANCH  16  19
ATOM     19  C4  non d ame     -10.601  11.864  63.579  0.00  0.00     0.154 A 
ATOM     20  C1  non d ame     -10.685  12.953  64.504  0.00  0.00    -0.017 A 
ATOM     21  C2  non d ame     -12.064  13.246  64.597  0.00  0.00     0.077 A 
ATOM     22  H1  non d ame      -9.870  13.454  65.029  0.00  0.00     0.091 H 
ATOM     23  O1  non d ame     -12.690  12.419  63.811  0.00  0.00    -0.218 OA
ATOM     24  N1  non d ame     -11.857  11.602  63.207  0.00  0.00    -0.123 NA
BRANCH  21  25
ATOM     25  C3  non d ame     -12.699  14.332  65.455  0.00  0.00    -0.029 C 
ATOM     26  H2  non d ame     -12.024  15.187  65.519  0.00  0.00     0.036 H 
ATOM     27  H3  non d ame     -13.640  14.646  65.004  0.00  0.00     0.036 H 
ATOM     28  H4  non d ame     -12.888  13.942  66.455  0.00  0.00     0.036 H 
ENDBRANCH  21  25
ENDBRANCH  16  19
ENDBRANCH  13  15
BRANCH  13  29
ATOM     29  C8  non d ame      -5.987  10.347  64.494  0.00  0.00    -0.049 C 
ATOM     30  H7  non d ame      -5.818  11.422  64.426  0.00  0.00     0.030 H 
ATOM     31  H8  non d ame      -6.197  10.077  65.530  0.00  0.00     0.030 H 
ATOM     32  H9  non d ame      -5.098   9.818  64.153  0.00  0.00     0.030 H 
ENDBRANCH  13  29
ENDBRANCH  10  13
ENDBRANCH   7   9
BRANCH   7  33
ATOM     33  C11 non d ame      -5.712   5.493  64.636  0.00  0.00    -0.033 C 
ATOM     34  H12 non d ame      -5.902   4.422  64.709  0.00  0.00     0.042 H 
BRANCH  33  35
ATOM     35  C12 non d ame      -5.175   5.776  63.198  0.00  0.00    -0.071 C 
ATOM     36  H13 non d ame      -5.806   5.269  62.468  0.00  0.00     0.028 H 
ATOM     37  H14 non d ame      -5.192   6.849  63.009  0.00  0.00     0.028 H 
ATOM     38  H15 non d ame      -4.153   5.409  63.114  0.00  0.00     0.028 H 
ENDBRANCH  33  35
BRANCH  33  39
ATOM     39  C13 non d ame      -4.653   5.872  65.720  0.00  0.00    -0.071 C 
ATOM     40  H16 non d ame      -4.894   6.849  66.138  0.00  0.00     0.028 H 
ATOM     41  H17 non d ame      -4.662   5.124  66.514  0.00  0.00     0.028 H 
ATOM     42  H18 non d ame      -3.664   5.906  65.265  0.00  0.00     0.028 H 
ENDBRANCH  33  39
ENDBRANCH   7  33
ENDBRANCH   4   7
ENDBRANCH   1   3
BRANCH   1  43
ATOM     43  C15 non d ame      -9.492   7.216  68.848  0.00  0.00     0.240 C 
ATOM     44  O5  non d ame     -10.461   6.564  68.622  0.00  0.00    -0.271 OA
ATOM     45  N6  non d ame      -9.638   8.629  69.299  0.00  0.00    -0.355 N 
ATOM     46  H46 non d ame      -8.822   9.191  69.497  0.00  0.00     0.162 HD
BRANCH  45  47
ATOM     47  C20 non d ame     -10.987   9.213  69.455  0.00  0.00     0.013 C 
ATOM     48  H30 non d ame     -11.713   8.403  69.388  0.00  0.00     0.072 H 
BRANCH  47  49
ATOM     49  C21 non d ame     -11.230  10.217  68.350  0.00  0.00    -0.038 C 
ATOM     50  H31 non d ame     -12.075   9.829  67.781  0.00  0.00     0.036 H 
ATOM     51  H32 non d ame     -11.303  11.186  68.845  0.00  0.00     0.036 H 
BRANCH  49  52
ATOM     52  C22 non d ame     -10.047  10.319  67.364  0.00  0.00     0.018 C 
ATOM     53  H33 non d ame      -9.391   9.480  67.600  0.00  0.00     0.048 H 
ATOM     54  H34 non d ame     -10.495  10.398  66.373  0.00  0.00     0.048 H 
BRANCH  52  55
ATOM     55  C23 non d ame      -9.186  11.599  67.549  0.00  0.00     0.259 C 
ATOM     56  O7  non d ame      -8.230  11.787  66.869  0.00  0.00    -0.265 OA
BRANCH  55  57
ATOM     57  O8  non d ame      -9.545  12.541  68.552  0.00  0.00    -0.317 OA
BRANCH  57  58
ATOM     58  C29 non d ame     -10.181  13.719  68.047  0.00  0.00     0.052 C 
ATOM     59  H47 non d ame      -9.375  14.408  67.799  0.00  0.00     0.082 H 
ATOM     60  H48 non d ame     -10.861  13.374  67.267  0.00  0.00     0.082 H 
BRANCH  58  61
ATOM     61  C35 non d ame     -11.023  14.338  69.193  0.00  0.00    -0.034 A 
ATOM     62  C30 non d ame     -10.830  15.666  69.560  0.00  0.00    -0.075 A 
ATOM     63  C31 non d ame     -11.586  16.223  70.591  0.00  0.00    -0.082 A 
ATOM     64  H49 non d ame     -10.086  16.269  69.041  0.00  0.00     0.084 H 
ATOM     65  C32 non d ame     -12.537  15.445  71.256  0.00  0.00    -0.083 A 
ATOM     66  H50 non d ame     -11.433  17.263  70.875  0.00  0.00     0.083 H 
ATOM     67  C33 non d ame     -12.725  14.119  70.889  0.00  0.00    -0.082 A 
ATOM     68  H51 non d ame     -13.133  15.872  72.063  0.00  0.00     0.083 H 
ATOM     69  C34 non d ame     -11.973  13.560  69.858  0.00  0.00    -0.075 A 
ATOM     70  H52 non d ame     -13.467  13.515  71.412  0.00  0.00     0.083 H 
ATOM     71  H53 non d ame     -12.127  12.518  69.574  0.00  0.00     0.084 H 
ENDBRANCH  58  61
ENDBRANCH  57  58
ENDBRANCH  55  57
ENDBRANCH  52  55
ENDBRANCH  49  52
ENDBRANCH  47  49
BRANCH  47  72
ATOM     72  C24 non d ame     -11.094   9.910  70.810  0.00  0.00    -0.039 C 
ATOM     73  H35 non d ame     -10.080   9.930  71.207  0.00  0.00     0.036 H 
ATOM     74  H36 non d ame     -11.621  10.844  70.615  0.00  0.00     0.036 H 
BRANCH  72  75
ATOM     75  C25 non d ame     -11.988   9.069  71.840  0.00  0.00    -0.001 C 
ATOM     76  C26 non d ame     -11.946   7.473  71.446  0.00  0.00    -0.035 C 
ATOM     77  C27 non d ame     -13.216   7.009  71.367  0.00  0.00     0.085 C 
ATOM     78  H38 non d ame     -11.567   7.349  70.432  0.00  0.00     0.036 H 
ATOM     79  H39 non d ame     -11.514   6.897  72.264  0.00  0.00     0.036 H 
ATOM     80  N5  non d ame     -14.126   8.213  71.350  0.00  0.00    -0.049 N 
ATOM     81  H40 non d ame     -13.282   6.500  70.405  0.00  0.00     0.075 H 
ATOM     82  H41 non d ame     -13.381   6.454  72.290  0.00  0.00     0.075 H 
ATOM     83  C28 non d ame     -13.218   9.463  71.820  0.00  0.00     0.193 C 
ATOM     84  H42 non d ame     -14.394   8.355  70.386  0.00  0.00     0.280 HD
ATOM     85  H43 non d ame     -14.834   8.048  72.051  0.00  0.00     0.280 HD
ATOM     86  H44 non d ame     -13.313   9.868  72.828  0.00  0.00     0.129 H 
ATOM     87  H37 non d ame     -11.778   9.329  72.877  0.00  0.00     0.046 H 
BRANCH  83  88
ATOM     88  O6  non d ame     -13.416  10.572  70.943  0.00  0.00    -0.369 OA
ATOM     89  H45 non d ame     -13.617  10.251  70.061  0.00  0.00     0.212 HD
ENDBRANCH  83  88
ENDBRANCH  72  75
ENDBRANCH  47  72
ENDBRANCH  45  47
ENDBRANCH   1  43
BRANCH   1  90
ATOM     90  C16 non d ame      -7.134   7.164  69.721  0.00  0.00    -0.035 C 
ATOM     91  H21 non d ame      -6.161   6.722  69.504  0.00  0.00     0.037 H 
ATOM     92  H22 non d ame      -7.267   8.244  69.663  0.00  0.00     0.037 H 
BRANCH  90  93
ATOM     93  C17 non d ame      -7.489   6.753  71.185  0.00  0.00    -0.059 C 
ATOM     94  H23 non d ame      -8.503   6.353  71.180  0.00  0.00     0.038 H 
BRANCH  93  95
ATOM     95  C18 non d ame      -6.540   5.640  71.732  0.00  0.00    -0.073 C 
ATOM     96  H24 non d ame      -6.403   4.872  70.970  0.00  0.00     0.028 H 
ATOM     97  H25 non d ame      -5.573   6.077  71.983  0.00  0.00     0.028 H 
ATOM     98  H26 non d ame      -6.979   5.193  72.624  0.00  0.00     0.028 H 
ENDBRANCH  93  95
BRANCH  93  99
ATOM     99  C19 non d ame      -7.488   7.973  72.110  0.00  0.00    -0.073 C 
ATOM    100  H27 non d ame      -6.735   7.839  72.886  0.00  0.00     0.028 H 
ATOM    101  H28 non d ame      -7.259   8.868  71.531  0.00  0.00     0.028 H 
ATOM    102  H29 non d ame      -8.469   8.079  72.572  0.00  0.00     0.028 H 
ENDBRANCH  93  99
ENDBRANCH  90  93
ENDBRANCH   1  90
TORSDOF 26
ENDMDL
MODEL 13
REMARK VINA RESULT:      -5.8      2.621      3.610
REMARK  26 active torsions:
REMARK  status: ('A' for Active; 'I' for Inactive)
REMARK    1  A    between atoms: C2_2  and  C3_3 
REMARK    2  A    between atoms: C4_6  and  C5_7 
REMARK       I    between atoms: C5_7  and  N2_9 
REMARK    3  A    between atoms: N2_9  and  C6_10 
REMARK    4  A    between atoms: C6_10  and  C7_11 
REMARK    5  A    between atoms: C6_10  and  C8_13 
REMARK       I    between atoms: C7_11  and  N3_14 
REMARK    6  A    between atoms: N3_14  and  C9_15 
REMARK    7  A    between atoms: C9_15  and  C10_16 
REMARK    8  A    between atoms: C9_15  and  C11_18 
REMARK       I    between atoms: C10_16  and  N4_21 
REMARK    9  A    between atoms: C11_18  and  C12_19 
REMARK   10  A    between atoms: C11_18  and  C13_20 
REMARK   11  A    between atoms: N4_21  and  C14_22 
REMARK   12  A    between atoms: C14_22  and  C15_23 
REMARK   13  A    between atoms: C14_22  and  C16_25 
REMARK       I    between atoms: C15_23  and  N6_40 
REMARK   14  A    between atoms: C16_25  and  C17_26 
REMARK   15  A    between atoms: C17_26  and  C18_27 
REMARK   16  A    between atoms: C17_26  and  C19_28 
REMARK   17  A    between atoms: C20_29  and  C21_30 
REMARK   18  A    between atoms: C20_29  and  C24_33 
REMARK   19  A    between atoms: C20_29  and  N6_40 
REMARK   20  A    between atoms: C21_30  and  C22_31 
REMARK   21  A    between atoms: C22_31  and  C23_32 
REMARK   22  A    between atoms: C23_32  and  O8_43 
REMARK   23  A    between atoms: C24_33  and  C25_34 
REMARK   24  A    between atoms: C28_38  and  O6_39 
REMARK   25  A    between atoms: C29_42  and  O8_43 
REMARK   26  A    between atoms: C29_42  and  C35_49 
ROOT
ATOM      1  C14 non d ame      -9.938   9.456  66.787  0.00  0.00     0.089 C 
ATOM      2  H20 non d ame     -10.992   9.185  66.725  0.00  0.00     0.087 H 
ENDROOT
BRANCH   1   3
ATOM      3  N4  non d ame      -9.842  10.895  66.595  0.00  0.00    -0.346 N 
ATOM      4  C10 non d ame     -10.993  11.792  66.975  0.00  0.00     0.241 C 
ATOM      5  O4  non d ame     -11.988  11.332  67.432  0.00  0.00    -0.271 OA
ATOM      6  H19 non d ame      -8.988  11.266  66.202  0.00  0.00     0.163 HD
BRANCH   4   7
ATOM      7  C9  non d ame     -10.875  13.280  66.775  0.00  0.00     0.092 C 
ATOM      8  H11 non d ame     -11.536  13.790  67.476  0.00  0.00     0.088 H 
BRANCH   7   9
ATOM      9  N3  non d ame      -9.507  13.708  67.081  0.00  0.00    -0.346 N 
ATOM     10  C7  non d ame      -9.245  14.504  68.254  0.00  0.00     0.240 C 
ATOM     11  O3  non d ame     -10.125  14.812  68.963  0.00  0.00    -0.271 OA
ATOM     12  H10 non d ame      -8.738  13.452  66.478  0.00  0.00     0.163 HD
BRANCH  10  13
ATOM     13  C6  non d ame      -7.787  14.959  68.572  0.00  0.00     0.086 C 
ATOM     14  H6  non d ame      -7.736  15.984  68.941  0.00  0.00     0.086 H 
BRANCH  13  15
ATOM     15  N2  non d ame      -7.248  14.111  69.622  0.00  0.00    -0.343 N 
ATOM     16  C5  non d ame      -6.153  14.608  70.459  0.00  0.00     0.273 C 
ATOM     17  O2  non d ame      -5.712  15.690  70.277  0.00  0.00    -0.266 OA
ATOM     18  H5  non d ame      -7.629  13.188  69.769  0.00  0.00     0.163 HD
BRANCH  16  19
ATOM     19  C4  non d ame      -5.574  13.724  71.574  0.00  0.00     0.154 A 
ATOM     20  C1  non d ame      -5.196  14.132  72.893  0.00  0.00    -0.017 A 
ATOM     21  C2  non d ame      -4.728  12.955  73.518  0.00  0.00     0.077 A 
ATOM     22  H1  non d ame      -5.252  15.130  73.329  0.00  0.00     0.091 H 
ATOM     23  O1  non d ame      -4.832  11.989  72.652  0.00  0.00    -0.218 OA
ATOM     24  N1  non d ame      -5.322  12.414  71.510  0.00  0.00    -0.123 NA
BRANCH  21  25
ATOM     25  C3  non d ame      -4.203  12.838  74.942  0.00  0.00    -0.029 C 
ATOM     26  H2  non d ame      -4.416  11.841  75.329  0.00  0.00     0.036 H 
ATOM     27  H3  non d ame      -3.126  13.007  74.947  0.00  0.00     0.036 H 
ATOM     28  H4  non d ame      -4.689  13.584  75.572  0.00  0.00     0.036 H 
ENDBRANCH  21  25
ENDBRANCH  16  19
ENDBRANCH  13  15
BRANCH  13  29
ATOM     29  C8  non d ame      -6.940  14.845  67.331  0.00  0.00    -0.049 C 
ATOM     30  H7  non d ame      -7.585  14.775  66.455  0.00  0.00     0.030 H 
ATOM     31  H8  non d ame      -6.303  15.727  67.244  0.00  0.00     0.030 H 
ATOM     32  H9  non d ame      -6.318  13.953  67.396  0.00  0.00     0.030 H 
ENDBRANCH  13  29
ENDBRANCH  10  13
ENDBRANCH   7   9
BRANCH   7  33
ATOM     33  C11 non d ame     -11.208  13.633  65.296  0.00  0.00    -0.033 C 
ATOM     34  H12 non d ame     -12.231  13.309  65.103  0.00  0.00     0.042 H 
BRANCH  33  35
ATOM     35  C12 non d ame     -11.149  15.173  65.051  0.00  0.00    -0.071 C 
ATOM     36  H13 non d ame     -10.113  15.477  64.902  0.00  0.00     0.028 H 
ATOM     37  H14 non d ame     -11.732  15.423  64.165  0.00  0.00     0.028 H 
ATOM     38  H15 non d ame     -11.562  15.693  65.915  0.00  0.00     0.028 H 
ENDBRANCH  33  35
BRANCH  33  39
ATOM     39  C13 non d ame     -10.266  12.867  64.313  0.00  0.00    -0.071 C 
ATOM     40  H16 non d ame     -10.425  11.794  64.419  0.00  0.00     0.028 H 
ATOM     41  H17 non d ame     -10.486  13.168  63.288  0.00  0.00     0.028 H 
ATOM     42  H18 non d ame      -9.228  13.105  64.547  0.00  0.00     0.028 H 
ENDBRANCH  33  39
ENDBRANCH   7  33
ENDBRANCH   4   7
ENDBRANCH   1   3
BRANCH   1  43
ATOM     43  C15 non d ame      -9.319   9.098  68.169  0.00  0.00     0.240 C 
ATOM     44  O5  non d ame      -8.262   9.547  68.477  0.00  0.00    -0.271 OA
ATOM     45  N6  non d ame     -10.048   8.204  69.113  0.00  0.00    -0.355 N 
ATOM     46  H46 non d ame     -10.949   7.821  68.864  0.00  0.00     0.162 HD
BRANCH  45  47
ATOM     47  C20 non d ame      -9.447   7.875  70.423  0.00  0.00     0.013 C 
ATOM     48  H30 non d ame      -8.417   8.233  70.418  0.00  0.00     0.072 H 
BRANCH  47  49
ATOM     49  C21 non d ame      -9.472   6.377  70.623  0.00  0.00    -0.038 C 
ATOM     50  H31 non d ame      -9.790   6.222  71.654  0.00  0.00     0.036 H 
ATOM     51  H32 non d ame     -10.071   5.981  69.802  0.00  0.00     0.036 H 
BRANCH  49  52
ATOM     52  C22 non d ame      -8.076   5.731  70.495  0.00  0.00     0.018 C 
ATOM     53  H33 non d ame      -7.425   6.300  71.160  0.00  0.00     0.048 H 
ATOM     54  H34 non d ame      -8.227   4.665  70.662  0.00  0.00     0.048 H 
BRANCH  52  55
ATOM     55  C23 non d ame      -7.455   5.860  69.076  0.00  0.00     0.259 C 
ATOM     56  O7  non d ame      -6.281   5.987  68.941  0.00  0.00    -0.265 OA
BRANCH  55  57
ATOM     57  O8  non d ame      -8.307   5.839  67.938  0.00  0.00    -0.317 OA
BRANCH  57  58
ATOM     58  C29 non d ame      -8.128   4.696  67.096  0.00  0.00     0.052 C 
ATOM     59  H47 non d ame      -7.250   4.179  67.482  0.00  0.00     0.082 H 
ATOM     60  H48 non d ame      -9.093   4.190  67.077  0.00  0.00     0.082 H 
BRANCH  58  61
ATOM     61  C35 non d ame      -7.811   5.201  65.664  0.00  0.00    -0.034 A 
ATOM     62  C30 non d ame      -8.741   5.031  64.643  0.00  0.00    -0.075 A 
ATOM     63  C31 non d ame      -8.456   5.485  63.356  0.00  0.00    -0.082 A 
ATOM     64  H49 non d ame      -9.692   4.543  64.852  0.00  0.00     0.084 H 
ATOM     65  C32 non d ame      -7.234   6.108  63.091  0.00  0.00    -0.083 A 
ATOM     66  H50 non d ame      -9.188   5.352  62.560  0.00  0.00     0.083 H 
ATOM     67  C33 non d ame      -6.307   6.273  64.111  0.00  0.00    -0.082 A 
ATOM     68  H51 non d ame      -7.003   6.466  62.087  0.00  0.00     0.083 H 
ATOM     69  C34 non d ame      -6.589   5.823  65.400  0.00  0.00    -0.075 A 
ATOM     70  H52 non d ame      -5.353   6.757  63.900  0.00  0.00     0.083 H 
ATOM     71  H53 non d ame      -5.856   5.957  66.197  0.00  0.00     0.084 H 
ENDBRANCH  58  61
ENDBRANCH  57  58
ENDBRANCH  55  57
ENDBRANCH  52  55
ENDBRANCH  49  52
ENDBRANCH  47  49
BRANCH  47  72
ATOM     72  C24 non d ame     -10.239   8.553  71.539  0.00  0.00    -0.039 C 
ATOM     73  H35 non d ame     -10.271   7.829  72.353  0.00  0.00     0.036 H 
ATOM     74  H36 non d ame      -9.761   9.521  71.689  0.00  0.00     0.036 H 
BRANCH  72  75
ATOM     75  C25 non d ame     -11.754   8.837  71.101  0.00  0.00    -0.001 C 
ATOM     76  C26 non d ame     -12.015  10.458  71.005  0.00  0.00    -0.035 C 
ATOM     77  C27 non d ame     -13.118  10.766  71.726  0.00  0.00     0.085 C 
ATOM     78  H38 non d ame     -11.217  10.995  71.517  0.00  0.00     0.036 H 
ATOM     79  H39 non d ame     -12.290  10.732  69.986  0.00  0.00     0.036 H 
ATOM     80  N5  non d ame     -13.447   9.559  72.570  0.00  0.00    -0.049 N 
ATOM     81  H40 non d ame     -12.821  11.587  72.380  0.00  0.00     0.075 H 
ATOM     82  H41 non d ame     -13.913  10.913  70.994  0.00  0.00     0.075 H 
ATOM     83  C28 non d ame     -12.588   8.338  71.953  0.00  0.00     0.193 C 
ATOM     84  H42 non d ame     -13.102   9.757  73.499  0.00  0.00     0.280 HD
ATOM     85  H43 non d ame     -14.427   9.366  72.427  0.00  0.00     0.280 HD
ATOM     86  H44 non d ame     -13.070   7.578  71.337  0.00  0.00     0.129 H 
ATOM     87  H37 non d ame     -12.057   8.234  70.245  0.00  0.00     0.046 H 
BRANCH  83  88
ATOM     88  O6  non d ame     -11.928   7.623  72.998  0.00  0.00    -0.369 OA
ATOM     89  H45 non d ame     -11.078   8.030  73.178  0.00  0.00     0.212 HD
ENDBRANCH  83  88
ENDBRANCH  72  75
ENDBRANCH  47  72
ENDBRANCH  45  47
ENDBRANCH   1  43
BRANCH   1  90
ATOM     90  C16 non d ame      -9.161   8.754  65.683  0.00  0.00    -0.035 C 
ATOM     91  H21 non d ame      -8.394   8.173  66.195  0.00  0.00     0.037 H 
ATOM     92  H22 non d ame      -9.913   8.250  65.078  0.00  0.00     0.037 H 
BRANCH  90  93
ATOM     93  C17 non d ame      -8.409   9.734  64.727  0.00  0.00    -0.059 C 
ATOM     94  H23 non d ame      -8.839  10.726  64.865  0.00  0.00     0.038 H 
BRANCH  93  95
ATOM     95  C18 non d ame      -6.885   9.825  65.056  0.00  0.00    -0.073 C 
ATOM     96  H24 non d ame      -6.694   9.360  66.024  0.00  0.00     0.028 H 
ATOM     97  H25 non d ame      -6.315   9.305  64.286  0.00  0.00     0.028 H 
ATOM     98  H26 non d ame      -6.581  10.871  65.088  0.00  0.00     0.028 H 
ENDBRANCH  93  95
BRANCH  93  99
ATOM     99  C19 non d ame      -8.628   9.344  63.263  0.00  0.00    -0.073 C 
ATOM    100  H27 non d ame      -8.272  10.147  62.617  0.00  0.00     0.028 H 
ATOM    101  H28 non d ame      -8.078   8.429  63.044  0.00  0.00     0.028 H 
ATOM    102  H29 non d ame      -9.691   9.181  63.086  0.00  0.00     0.028 H 
ENDBRANCH  93  99
ENDBRANCH  90  93
ENDBRANCH   1  90
TORSDOF 26
ENDMDL
MODEL 14
REMARK VINA RESULT:      -5.7      2.899      7.322
REMARK  26 active torsions:
REMARK  status: ('A' for Active; 'I' for Inactive)
REMARK    1  A    between atoms: C2_2  and  C3_3 
REMARK    2  A    between atoms: C4_6  and  C5_7 
REMARK       I    between atoms: C5_7  and  N2_9 
REMARK    3  A    between atoms: N2_9  and  C6_10 
REMARK    4  A    between atoms: C6_10  and  C7_11 
REMARK    5  A    between atoms: C6_10  and  C8_13 
REMARK       I    between atoms: C7_11  and  N3_14 
REMARK    6  A    between atoms: N3_14  and  C9_15 
REMARK    7  A    between atoms: C9_15  and  C10_16 
REMARK    8  A    between atoms: C9_15  and  C11_18 
REMARK       I    between atoms: C10_16  and  N4_21 
REMARK    9  A    between atoms: C11_18  and  C12_19 
REMARK   10  A    between atoms: C11_18  and  C13_20 
REMARK   11  A    between atoms: N4_21  and  C14_22 
REMARK   12  A    between atoms: C14_22  and  C15_23 
REMARK   13  A    between atoms: C14_22  and  C16_25 
REMARK       I    between atoms: C15_23  and  N6_40 
REMARK   14  A    between atoms: C16_25  and  C17_26 
REMARK   15  A    between atoms: C17_26  and  C18_27 
REMARK   16  A    between atoms: C17_26  and  C19_28 
REMARK   17  A    between atoms: C20_29  and  C21_30 
REMARK   18  A    between atoms: C20_29  and  C24_33 
REMARK   19  A    between atoms: C20_29  and  N6_40 
REMARK   20  A    between atoms: C21_30  and  C22_31 
REMARK   21  A    between atoms: C22_31  and  C23_32 
REMARK   22  A    between atoms: C23_32  and  O8_43 
REMARK   23  A    between atoms: C24_33  and  C25_34 
REMARK   24  A    between atoms: C28_38  and  O6_39 
REMARK   25  A    between atoms: C29_42  and  O8_43 
REMARK   26  A    between atoms: C29_42  and  C35_49 
ROOT
ATOM      1  C14 non d ame      -7.518  10.099  64.695  0.00  0.00     0.089 C 
ATOM      2  H20 non d ame      -7.188  10.594  63.781  0.00  0.00     0.087 H 
ENDROOT
BRANCH   1   3
ATOM      3  N4  non d ame      -6.570  10.439  65.745  0.00  0.00    -0.346 N 
ATOM      4  C10 non d ame      -5.191  10.937  65.394  0.00  0.00     0.241 C 
ATOM      5  O4  non d ame      -4.866  11.053  64.258  0.00  0.00    -0.271 OA
ATOM      6  H19 non d ame      -6.866  10.331  66.706  0.00  0.00     0.163 HD
BRANCH   4   7
ATOM      7  C9  non d ame      -4.224  11.290  66.493  0.00  0.00     0.092 C 
ATOM      8  H11 non d ame      -3.427  11.912  66.085  0.00  0.00     0.088 H 
BRANCH   7   9
ATOM      9  N3  non d ame      -4.913  12.085  67.514  0.00  0.00    -0.346 N 
ATOM     10  C7  non d ame      -4.600  13.484  67.672  0.00  0.00     0.240 C 
ATOM     11  O3  non d ame      -3.794  13.986  66.987  0.00  0.00    -0.271 OA
ATOM     12  H10 non d ame      -5.609  11.666  68.114  0.00  0.00     0.163 HD
BRANCH  10  13
ATOM     13  C6  non d ame      -5.334  14.324  68.762  0.00  0.00     0.086 C 
ATOM     14  H6  non d ame      -4.704  15.105  69.189  0.00  0.00     0.086 H 
BRANCH  13  15
ATOM     15  N2  non d ame      -6.472  14.993  68.154  0.00  0.00    -0.343 N 
ATOM     16  C5  non d ame      -6.414  16.437  67.912  0.00  0.00     0.273 C 
ATOM     17  O2  non d ame      -5.449  17.050  68.212  0.00  0.00    -0.266 OA
ATOM     18  H5  non d ame      -7.293  14.463  67.902  0.00  0.00     0.163 HD
BRANCH  16  19
ATOM     19  C4  non d ame      -7.608  17.158  67.268  0.00  0.00     0.154 A 
ATOM     20  C1  non d ame      -8.412  18.189  67.849  0.00  0.00    -0.017 A 
ATOM     21  C2  non d ame      -9.367  18.509  66.859  0.00  0.00     0.077 A 
ATOM     22  H1  non d ame      -8.318  18.637  68.839  0.00  0.00     0.091 H 
ATOM     23  O1  non d ame      -9.129  17.746  65.831  0.00  0.00    -0.218 OA
ATOM     24  N1  non d ame      -8.108  16.949  66.047  0.00  0.00    -0.123 NA
BRANCH  21  25
ATOM     25  C3  non d ame     -10.468  19.554  66.972  0.00  0.00    -0.029 C 
ATOM     26  H2  non d ame     -10.710  19.716  68.023  0.00  0.00     0.036 H 
ATOM     27  H3  non d ame     -10.126  20.490  66.530  0.00  0.00     0.036 H 
ATOM     28  H4  non d ame     -11.356  19.207  66.443  0.00  0.00     0.036 H 
ENDBRANCH  21  25
ENDBRANCH  16  19
ENDBRANCH  13  15
BRANCH  13  29
ATOM     29  C8  non d ame      -5.802  13.416  69.870  0.00  0.00    -0.049 C 
ATOM     30  H7  non d ame      -5.077  12.615  70.016  0.00  0.00     0.030 H 
ATOM     31  H8  non d ame      -5.900  13.990  70.793  0.00  0.00     0.030 H 
ATOM     32  H9  non d ame      -6.767  12.986  69.605  0.00  0.00     0.030 H 
ENDBRANCH  13  29
ENDBRANCH  10  13
ENDBRANCH   7   9
BRANCH   7  33
ATOM     33  C11 non d ame      -3.674   9.985  67.140  0.00  0.00    -0.033 C 
ATOM     34  H12 non d ame      -2.669  10.197  67.504  0.00  0.00     0.042 H 
BRANCH  33  35
ATOM     35  C12 non d ame      -4.536   9.552  68.367  0.00  0.00    -0.071 C 
ATOM     36  H13 non d ame      -4.654   8.468  68.363  0.00  0.00     0.028 H 
ATOM     37  H14 non d ame      -4.039   9.859  69.287  0.00  0.00     0.028 H 
ATOM     38  H15 non d ame      -5.515  10.025  68.308  0.00  0.00     0.028 H 
ENDBRANCH  33  35
BRANCH  33  39
ATOM     39  C13 non d ame      -3.575   8.837  66.084  0.00  0.00    -0.071 C 
ATOM     40  H16 non d ame      -4.422   8.896  65.403  0.00  0.00     0.028 H 
ATOM     41  H17 non d ame      -2.647   8.940  65.522  0.00  0.00     0.028 H 
ATOM     42  H18 non d ame      -3.585   7.874  66.594  0.00  0.00     0.028 H 
ENDBRANCH  33  39
ENDBRANCH   7  33
ENDBRANCH   4   7
ENDBRANCH   1   3
BRANCH   1  43
ATOM     43  C15 non d ame      -8.935  10.566  65.137  0.00  0.00     0.240 C 
ATOM     44  O5  non d ame      -9.740  10.871  64.316  0.00  0.00    -0.271 OA
ATOM     45  N6  non d ame      -9.293  10.624  66.582  0.00  0.00    -0.355 N 
ATOM     46  H46 non d ame      -8.619  10.363  67.289  0.00  0.00     0.162 HD
BRANCH  45  47
ATOM     47  C20 non d ame     -10.644  11.068  66.986  0.00  0.00     0.013 C 
ATOM     48  H30 non d ame     -11.275  11.073  66.097  0.00  0.00     0.072 H 
BRANCH  47  49
ATOM     49  C21 non d ame     -10.560  12.462  67.566  0.00  0.00    -0.038 C 
ATOM     50  H31 non d ame     -10.466  12.328  68.644  0.00  0.00     0.036 H 
ATOM     51  H32 non d ame      -9.770  12.966  67.007  0.00  0.00     0.036 H 
BRANCH  49  52
ATOM     52  C22 non d ame     -11.847  13.285  67.338  0.00  0.00     0.018 C 
ATOM     53  H33 non d ame     -12.225  12.979  66.362  0.00  0.00     0.048 H 
ATOM     54  H34 non d ame     -12.455  13.134  68.230  0.00  0.00     0.048 H 
BRANCH  52  55
ATOM     55  C23 non d ame     -11.601  14.816  67.240  0.00  0.00     0.259 C 
ATOM     56  O7  non d ame     -11.224  15.302  66.223  0.00  0.00    -0.265 OA
BRANCH  55  57
ATOM     57  O8  non d ame     -11.817  15.632  68.384  0.00  0.00    -0.317 OA
BRANCH  57  58
ATOM     58  C29 non d ame     -11.107  15.203  69.550  0.00  0.00     0.052 C 
ATOM     59  H47 non d ame     -10.897  14.145  69.395  0.00  0.00     0.082 H 
ATOM     60  H48 non d ame     -10.285  15.909  69.670  0.00  0.00     0.082 H 
BRANCH  58  61
ATOM     61  C35 non d ame     -12.057  15.343  70.768  0.00  0.00    -0.034 A 
ATOM     62  C30 non d ame     -11.608  15.951  71.936  0.00  0.00    -0.075 A 
ATOM     63  C31 non d ame     -12.461  16.077  73.031  0.00  0.00    -0.082 A 
ATOM     64  H49 non d ame     -10.587  16.329  71.993  0.00  0.00     0.084 H 
ATOM     65  C32 non d ame     -13.768  15.589  72.956  0.00  0.00    -0.083 A 
ATOM     66  H50 non d ame     -12.106  16.555  73.943  0.00  0.00     0.083 H 
ATOM     67  C33 non d ame     -14.212  14.980  71.790  0.00  0.00    -0.082 A 
ATOM     68  H51 non d ame     -14.442  15.683  73.807  0.00  0.00     0.083 H 
ATOM     69  C34 non d ame     -13.363  14.855  70.692  0.00  0.00    -0.075 A 
ATOM     70  H52 non d ame     -15.232  14.598  71.735  0.00  0.00     0.083 H 
ATOM     71  H53 non d ame     -13.719  14.376  69.779  0.00  0.00     0.084 H 
ENDBRANCH  58  61
ENDBRANCH  57  58
ENDBRANCH  55  57
ENDBRANCH  52  55
ENDBRANCH  49  52
ENDBRANCH  47  49
BRANCH  47  72
ATOM     72  C24 non d ame     -11.210  10.113  68.034  0.00  0.00    -0.039 C 
ATOM     73  H35 non d ame     -12.294  10.192  67.945  0.00  0.00     0.036 H 
ATOM     74  H36 non d ame     -10.717   9.157  67.853  0.00  0.00     0.036 H 
BRANCH  72  75
ATOM     75  C25 non d ame     -10.824  10.568  69.521  0.00  0.00    -0.001 C 
ATOM     76  C26 non d ame      -9.732   9.520  70.163  0.00  0.00    -0.035 C 
ATOM     77  C27 non d ame     -10.178   9.113  71.375  0.00  0.00     0.085 C 
ATOM     78  H38 non d ame      -9.709   8.601  69.578  0.00  0.00     0.036 H 
ATOM     79  H39 non d ame      -8.804  10.043  70.395  0.00  0.00     0.036 H 
ATOM     80  N5  non d ame     -11.625   9.531  71.477  0.00  0.00    -0.049 N 
ATOM     81  H40 non d ame     -10.123   8.024  71.355  0.00  0.00     0.075 H 
ATOM     82  H41 non d ame      -9.595   9.675  72.104  0.00  0.00     0.075 H 
ATOM     83  C28 non d ame     -11.865  10.595  70.286  0.00  0.00     0.193 C 
ATOM     84  H42 non d ame     -12.175   8.706  71.286  0.00  0.00     0.280 HD
ATOM     85  H43 non d ame     -11.724  10.010  72.360  0.00  0.00     0.280 HD
ATOM     86  H44 non d ame     -11.926  11.662  70.501  0.00  0.00     0.129 H 
ATOM     87  H37 non d ame     -10.586  11.630  69.578  0.00  0.00     0.046 H 
BRANCH  83  88
ATOM     88  O6  non d ame     -13.064  10.279  69.577  0.00  0.00    -0.369 OA
ATOM     89  H45 non d ame     -12.959   9.436  69.132  0.00  0.00     0.212 HD
ENDBRANCH  83  88
ENDBRANCH  72  75
ENDBRANCH  47  72
ENDBRANCH  45  47
ENDBRANCH   1  43
BRANCH   1  90
ATOM     90  C16 non d ame      -7.516   8.592  64.493  0.00  0.00    -0.035 C 
ATOM     91  H21 non d ame      -6.764   8.209  65.183  0.00  0.00     0.037 H 
ATOM     92  H22 non d ame      -8.557   8.285  64.598  0.00  0.00     0.037 H 
BRANCH  90  93
ATOM     93  C17 non d ame      -7.068   8.152  63.064  0.00  0.00    -0.059 C 
ATOM     94  H23 non d ame      -7.587   7.223  62.826  0.00  0.00     0.038 H 
BRANCH  93  95
ATOM     95  C18 non d ame      -7.449   9.204  61.975  0.00  0.00    -0.073 C 
ATOM     96  H24 non d ame      -6.638   9.288  61.251  0.00  0.00     0.028 H 
ATOM     97  H25 non d ame      -8.359   8.886  61.465  0.00  0.00     0.028 H 
ATOM     98  H26 non d ame      -7.617  10.172  62.447  0.00  0.00     0.028 H 
ENDBRANCH  93  95
BRANCH  93  99
ATOM     99  C19 non d ame      -5.566   7.853  63.031  0.00  0.00    -0.073 C 
ATOM    100  H27 non d ame      -5.221   7.617  64.037  0.00  0.00     0.028 H 
ATOM    101  H28 non d ame      -5.379   7.003  62.373  0.00  0.00     0.028 H 
ATOM    102  H29 non d ame      -5.031   8.725  62.658  0.00  0.00     0.028 H 
ENDBRANCH  93  99
ENDBRANCH  90  93
ENDBRANCH   1  90
TORSDOF 26
ENDMDL
MODEL 15
REMARK VINA RESULT:      -5.7      2.799      9.911
REMARK  26 active torsions:
REMARK  status: ('A' for Active; 'I' for Inactive)
REMARK    1  A    between atoms: C2_2  and  C3_3 
REMARK    2  A    between atoms: C4_6  and  C5_7 
REMARK       I    between atoms: C5_7  and  N2_9 
REMARK    3  A    between atoms: N2_9  and  C6_10 
REMARK    4  A    between atoms: C6_10  and  C7_11 
REMARK    5  A    between atoms: C6_10  and  C8_13 
REMARK       I    between atoms: C7_11  and  N3_14 
REMARK    6  A    between atoms: N3_14  and  C9_15 
REMARK    7  A    between atoms: C9_15  and  C10_16 
REMARK    8  A    between atoms: C9_15  and  C11_18 
REMARK       I    between atoms: C10_16  and  N4_21 
REMARK    9  A    between atoms: C11_18  and  C12_19 
REMARK   10  A    between atoms: C11_18  and  C13_20 
REMARK   11  A    between atoms: N4_21  and  C14_22 
REMARK   12  A    between atoms: C14_22  and  C15_23 
REMARK   13  A    between atoms: C14_22  and  C16_25 
REMARK       I    between atoms: C15_23  and  N6_40 
REMARK   14  A    between atoms: C16_25  and  C17_26 
REMARK   15  A    between atoms: C17_26  and  C18_27 
REMARK   16  A    between atoms: C17_26  and  C19_28 
REMARK   17  A    between atoms: C20_29  and  C21_30 
REMARK   18  A    between atoms: C20_29  and  C24_33 
REMARK   19  A    between atoms: C20_29  and  N6_40 
REMARK   20  A    between atoms: C21_30  and  C22_31 
REMARK   21  A    between atoms: C22_31  and  C23_32 
REMARK   22  A    between atoms: C23_32  and  O8_43 
REMARK   23  A    between atoms: C24_33  and  C25_34 
REMARK   24  A    between atoms: C28_38  and  O6_39 
REMARK   25  A    between atoms: C29_42  and  O8_43 
REMARK   26  A    between atoms: C29_42  and  C35_49 
ROOT
ATOM      1  C14 non d ame      -7.051   9.165  65.527  0.00  0.00     0.089 C 
ATOM      2  H20 non d ame      -6.261   9.069  66.271  0.00  0.00     0.087 H 
ENDROOT
BRANCH   1   3
ATOM      3  N4  non d ame      -7.573   7.831  65.268  0.00  0.00    -0.346 N 
ATOM      4  C10 non d ame      -6.835   6.614  65.764  0.00  0.00     0.241 C 
ATOM      5  O4  non d ame      -5.819   6.733  66.368  0.00  0.00    -0.271 OA
ATOM      6  H19 non d ame      -8.437   7.752  64.749  0.00  0.00     0.163 HD
BRANCH   4   7
ATOM      7  C9  non d ame      -7.392   5.242  65.492  0.00  0.00     0.092 C 
ATOM      8  H11 non d ame      -6.616   4.622  65.044  0.00  0.00     0.088 H 
BRANCH   7   9
ATOM      9  N3  non d ame      -7.774   4.609  66.758  0.00  0.00    -0.346 N 
ATOM     10  C7  non d ame      -8.593   5.325  67.705  0.00  0.00     0.240 C 
ATOM     11  O3  non d ame      -8.953   6.413  67.464  0.00  0.00    -0.271 OA
ATOM     12  H10 non d ame      -7.469   3.672  66.980  0.00  0.00     0.163 HD
BRANCH  10  13
ATOM     13  C6  non d ame      -8.992   4.646  69.052  0.00  0.00     0.086 C 
ATOM     14  H6  non d ame      -8.199   4.690  69.798  0.00  0.00     0.086 H 
BRANCH  13  15
ATOM     15  N2  non d ame     -10.131   5.352  69.614  0.00  0.00    -0.343 N 
ATOM     16  C5  non d ame      -9.923   6.291  70.720  0.00  0.00     0.273 C 
ATOM     17  O2  non d ame      -8.837   6.469  71.149  0.00  0.00    -0.266 OA
ATOM     18  H5  non d ame     -11.056   5.193  69.243  0.00  0.00     0.163 HD
BRANCH  16  19
ATOM     19  C4  non d ame     -11.118   7.046  71.323  0.00  0.00     0.154 A 
ATOM     20  C1  non d ame     -12.498   6.904  70.971  0.00  0.00    -0.017 A 
ATOM     21  C2  non d ame     -13.183   7.812  71.809  0.00  0.00     0.077 A 
ATOM     22  H1  non d ame     -12.936   6.243  70.223  0.00  0.00     0.091 H 
ATOM     23  O1  non d ame     -12.291   8.401  72.553  0.00  0.00    -0.218 OA
ATOM     24  N1  non d ame     -11.079   7.971  72.286  0.00  0.00    -0.123 NA
BRANCH  21  25
ATOM     25  C3  non d ame     -14.685   8.055  71.838  0.00  0.00    -0.029 C 
ATOM     26  H2  non d ame     -15.007   8.465  70.880  0.00  0.00     0.036 H 
ATOM     27  H3  non d ame     -15.202   7.112  72.020  0.00  0.00     0.036 H 
ATOM     28  H4  non d ame     -14.925   8.760  72.634  0.00  0.00     0.036 H 
ENDBRANCH  21  25
ENDBRANCH  16  19
ENDBRANCH  13  15
BRANCH  13  29
ATOM     29  C8  non d ame      -9.351   3.203  68.805  0.00  0.00    -0.049 C 
ATOM     30  H7  non d ame      -9.759   3.096  67.799  0.00  0.00     0.030 H 
ATOM     31  H8  non d ame      -8.457   2.585  68.901  0.00  0.00     0.030 H 
ATOM     32  H9  non d ame     -10.094   2.883  69.533  0.00  0.00     0.030 H 
ENDBRANCH  13  29
ENDBRANCH  10  13
ENDBRANCH   7   9
BRANCH   7  33
ATOM     33  C11 non d ame      -8.646   5.363  64.577  0.00  0.00    -0.033 C 
ATOM     34  H12 non d ame      -9.134   6.309  64.813  0.00  0.00     0.042 H 
BRANCH  33  35
ATOM     35  C12 non d ame      -8.246   5.405  63.069  0.00  0.00    -0.071 C 
ATOM     36  H13 non d ame      -8.633   6.319  62.616  0.00  0.00     0.028 H 
ATOM     37  H14 non d ame      -7.160   5.388  62.980  0.00  0.00     0.028 H 
ATOM     38  H15 non d ame      -8.667   4.539  62.558  0.00  0.00     0.028 H 
ENDBRANCH  33  35
BRANCH  33  39
ATOM     39  C13 non d ame      -9.660   4.210  64.862  0.00  0.00    -0.071 C 
ATOM     40  H16 non d ame      -9.558   3.439  64.099  0.00  0.00     0.028 H 
ATOM     41  H17 non d ame      -9.456   3.780  65.844  0.00  0.00     0.028 H 
ATOM     42  H18 non d ame     -10.674   4.607  64.844  0.00  0.00     0.028 H 
ENDBRANCH  33  39
ENDBRANCH   7  33
ENDBRANCH   4   7
ENDBRANCH   1   3
BRANCH   1  43
ATOM     43  C15 non d ame      -8.218  10.066  66.021  0.00  0.00     0.240 C 
ATOM     44  O5  non d ame      -9.165   9.573  66.546  0.00  0.00    -0.271 OA
ATOM     45  N6  non d ame      -8.153  11.545  65.849  0.00  0.00    -0.355 N 
ATOM     46  H46 non d ame      -7.353  11.976  65.409  0.00  0.00     0.162 HD
BRANCH  45  47
ATOM     47  C20 non d ame      -9.271  12.389  66.326  0.00  0.00     0.013 C 
ATOM     48  H30 non d ame      -8.969  13.432  66.228  0.00  0.00     0.072 H 
BRANCH  47  49
ATOM     49  C21 non d ame      -9.556  12.068  67.775  0.00  0.00    -0.038 C 
ATOM     50  H31 non d ame      -9.301  11.016  67.901  0.00  0.00     0.036 H 
ATOM     51  H32 non d ame      -9.031  12.830  68.353  0.00  0.00     0.036 H 
BRANCH  49  52
ATOM     52  C22 non d ame     -11.052  12.202  68.135  0.00  0.00     0.018 C 
ATOM     53  H33 non d ame     -11.597  11.757  67.302  0.00  0.00     0.048 H 
ATOM     54  H34 non d ame     -11.153  11.784  69.137  0.00  0.00     0.048 H 
BRANCH  52  55
ATOM     55  C23 non d ame     -11.543  13.673  68.232  0.00  0.00     0.259 C 
ATOM     56  O7  non d ame     -12.396  14.072  67.508  0.00  0.00    -0.265 OA
BRANCH  55  57
ATOM     57  O8  non d ame     -10.952  14.545  69.187  0.00  0.00    -0.317 OA
BRANCH  57  58
ATOM     58  C29 non d ame     -11.665  15.770  69.380  0.00  0.00     0.052 C 
ATOM     59  H47 non d ame     -10.911  16.556  69.371  0.00  0.00     0.082 H 
ATOM     60  H48 non d ame     -12.459  15.769  68.632  0.00  0.00     0.082 H 
BRANCH  58  61
ATOM     61  C35 non d ame     -12.316  15.729  70.787  0.00  0.00    -0.034 A 
ATOM     62  C30 non d ame     -13.572  15.155  70.958  0.00  0.00    -0.075 A 
ATOM     63  C31 non d ame     -14.157  15.118  72.222  0.00  0.00    -0.082 A 
ATOM     64  H49 non d ame     -14.097  14.734  70.101  0.00  0.00     0.084 H 
ATOM     65  C32 non d ame     -13.482  15.660  73.319  0.00  0.00    -0.083 A 
ATOM     66  H50 non d ame     -15.140  14.666  72.353  0.00  0.00     0.083 H 
ATOM     67  C33 non d ame     -12.230  16.235  73.145  0.00  0.00    -0.082 A 
ATOM     68  H51 non d ame     -13.932  15.635  74.312  0.00  0.00     0.083 H 
ATOM     69  C34 non d ame     -11.641  16.271  71.882  0.00  0.00    -0.075 A 
ATOM     70  H52 non d ame     -11.708  16.659  74.002  0.00  0.00     0.083 H 
ATOM     71  H53 non d ame     -10.657  16.724  71.753  0.00  0.00     0.084 H 
ENDBRANCH  58  61
ENDBRANCH  57  58
ENDBRANCH  55  57
ENDBRANCH  52  55
ENDBRANCH  49  52
ENDBRANCH  47  49
BRANCH  47  72
ATOM     72  C24 non d ame     -10.517  12.116  65.487  0.00  0.00    -0.039 C 
ATOM     73  H35 non d ame     -10.323  11.173  64.976  0.00  0.00     0.036 H 
ATOM     74  H36 non d ame     -11.356  12.197  66.179  0.00  0.00     0.036 H 
BRANCH  72  75
ATOM     75  C25 non d ame     -10.727  13.232  64.357  0.00  0.00    -0.001 C 
ATOM     76  C26 non d ame     -10.107  14.668  64.864  0.00  0.00    -0.035 C 
ATOM     77  C27 non d ame     -11.049  15.629  64.711  0.00  0.00     0.085 C 
ATOM     78  H38 non d ame      -9.942  14.643  65.942  0.00  0.00     0.036 H 
ATOM     79  H39 non d ame      -9.306  14.986  64.197  0.00  0.00     0.036 H 
ATOM     80  N5  non d ame     -12.359  14.926  64.452  0.00  0.00    -0.049 N 
ATOM     81  H40 non d ame     -11.104  16.141  65.672  0.00  0.00     0.075 H 
ATOM     82  H41 non d ame     -10.759  16.179  63.816  0.00  0.00     0.075 H 
ATOM     83  C28 non d ame     -11.981  13.398  64.092  0.00  0.00     0.193 C 
ATOM     84  H42 non d ame     -12.866  14.934  65.326  0.00  0.00     0.280 HD
ATOM     85  H43 non d ame     -12.760  15.359  63.633  0.00  0.00     0.280 HD
ATOM     86  H44 non d ame     -12.014  13.048  63.060  0.00  0.00     0.129 H 
ATOM     87  H37 non d ame     -10.425  12.882  63.370  0.00  0.00     0.046 H 
BRANCH  83  88
ATOM     88  O6  non d ame     -12.811  12.499  64.827  0.00  0.00    -0.369 OA
ATOM     89  H45 non d ame     -13.698  12.510  64.461  0.00  0.00     0.212 HD
ENDBRANCH  83  88
ENDBRANCH  72  75
ENDBRANCH  47  72
ENDBRANCH  45  47
ENDBRANCH   1  43
BRANCH   1  90
ATOM     90  C16 non d ame      -6.477   9.733  64.238  0.00  0.00    -0.035 C 
ATOM     91  H21 non d ame      -7.105  10.590  63.996  0.00  0.00     0.037 H 
ATOM     92  H22 non d ame      -5.415   9.874  64.432  0.00  0.00     0.037 H 
BRANCH  90  93
ATOM     93  C17 non d ame      -6.579   8.756  63.023  0.00  0.00    -0.059 C 
ATOM     94  H23 non d ame      -7.096   7.859  63.363  0.00  0.00     0.038 H 
BRANCH  93  95
ATOM     95  C18 non d ame      -7.403   9.364  61.844  0.00  0.00    -0.073 C 
ATOM     96  H24 non d ame      -7.939   8.567  61.328  0.00  0.00     0.028 H 
ATOM     97  H25 non d ame      -8.117  10.088  62.235  0.00  0.00     0.028 H 
ATOM     98  H26 non d ame      -6.728   9.860  61.147  0.00  0.00     0.028 H 
ENDBRANCH  93  95
BRANCH  93  99
ATOM     99  C19 non d ame      -5.187   8.326  62.551  0.00  0.00    -0.073 C 
ATOM    100  H27 non d ame      -4.970   7.326  62.926  0.00  0.00     0.028 H 
ATOM    101  H28 non d ame      -5.159   8.319  61.462  0.00  0.00     0.028 H 
ATOM    102  H29 non d ame      -4.443   9.025  62.930  0.00  0.00     0.028 H 
ENDBRANCH  93  99
ENDBRANCH  90  93
ENDBRANCH   1  90
TORSDOF 26
ENDMDL
MODEL 16
REMARK VINA RESULT:      -5.6      3.138      9.615
REMARK  26 active torsions:
REMARK  status: ('A' for Active; 'I' for Inactive)
REMARK    1  A    between atoms: C2_2  and  C3_3 
REMARK    2  A    between atoms: C4_6  and  C5_7 
REMARK       I    between atoms: C5_7  and  N2_9 
REMARK    3  A    between atoms: N2_9  and  C6_10 
REMARK    4  A    between atoms: C6_10  and  C7_11 
REMARK    5  A    between atoms: C6_10  and  C8_13 
REMARK       I    between atoms: C7_11  and  N3_14 
REMARK    6  A    between atoms: N3_14  and  C9_15 
REMARK    7  A    between atoms: C9_15  and  C10_16 
REMARK    8  A    between atoms: C9_15  and  C11_18 
REMARK       I    between atoms: C10_16  and  N4_21 
REMARK    9  A    between atoms: C11_18  and  C12_19 
REMARK   10  A    between atoms: C11_18  and  C13_20 
REMARK   11  A    between atoms: N4_21  and  C14_22 
REMARK   12  A    between atoms: C14_22  and  C15_23 
REMARK   13  A    between atoms: C14_22  and  C16_25 
REMARK       I    between atoms: C15_23  and  N6_40 
REMARK   14  A    between atoms: C16_25  and  C17_26 
REMARK   15  A    between atoms: C17_26  and  C18_27 
REMARK   16  A    between atoms: C17_26  and  C19_28 
REMARK   17  A    between atoms: C20_29  and  C21_30 
REMARK   18  A    between atoms: C20_29  and  C24_33 
REMARK   19  A    between atoms: C20_29  and  N6_40 
REMARK   20  A    between atoms: C21_30  and  C22_31 
REMARK   21  A    between atoms: C22_31  and  C23_32 
REMARK   22  A    between atoms: C23_32  and  O8_43 
REMARK   23  A    between atoms: C24_33  and  C25_34 
REMARK   24  A    between atoms: C28_38  and  O6_39 
REMARK   25  A    between atoms: C29_42  and  O8_43 
REMARK   26  A    between atoms: C29_42  and  C35_49 
ROOT
ATOM      1  C14 non d ame      -7.033   8.409  65.250  0.00  0.00     0.089 C 
ATOM      2  H20 non d ame      -5.959   8.501  65.090  0.00  0.00     0.087 H 
ENDROOT
BRANCH   1   3
ATOM      3  N4  non d ame      -7.237   7.434  66.310  0.00  0.00    -0.346 N 
ATOM      4  C10 non d ame      -6.178   7.220  67.362  0.00  0.00     0.241 C 
ATOM      5  O4  non d ame      -5.168   7.843  67.332  0.00  0.00    -0.271 OA
ATOM      6  H19 non d ame      -8.103   6.912  66.316  0.00  0.00     0.163 HD
BRANCH   4   7
ATOM      7  C9  non d ame      -6.408   6.211  68.456  0.00  0.00     0.092 C 
ATOM      8  H11 non d ame      -6.255   6.689  69.424  0.00  0.00     0.088 H 
BRANCH   7   9
ATOM      9  N3  non d ame      -7.801   5.755  68.416  0.00  0.00    -0.346 N 
ATOM     10  C7  non d ame      -8.527   5.545  69.644  0.00  0.00     0.240 C 
ATOM     11  O3  non d ame      -8.006   5.737  70.674  0.00  0.00    -0.271 OA
ATOM     12  H10 non d ame      -8.263   5.583  67.535  0.00  0.00     0.163 HD
BRANCH  10  13
ATOM     13  C6  non d ame     -10.008   5.057  69.594  0.00  0.00     0.086 C 
ATOM     14  H6  non d ame     -10.143   4.071  70.040  0.00  0.00     0.086 H 
BRANCH  13  15
ATOM     15  N2  non d ame     -10.833   5.976  70.361  0.00  0.00    -0.343 N 
ATOM     16  C5  non d ame     -10.814   7.404  70.036  0.00  0.00     0.273 C 
ATOM     17  O2  non d ame     -10.131   7.803  69.158  0.00  0.00    -0.266 OA
ATOM     18  H5  non d ame     -11.412   5.627  71.110  0.00  0.00     0.163 HD
BRANCH  16  19
ATOM     19  C4  non d ame     -11.683   8.387  70.836  0.00  0.00     0.154 A 
ATOM     20  C1  non d ame     -11.814   9.796  70.623  0.00  0.00    -0.017 A 
ATOM     21  C2  non d ame     -12.721  10.231  71.615  0.00  0.00     0.077 A 
ATOM     22  H1  non d ame     -11.326  10.409  69.865  0.00  0.00     0.091 H 
ATOM     23  O1  non d ame     -13.066   9.186  72.310  0.00  0.00    -0.218 OA
ATOM     24  N1  non d ame     -12.472   8.098  71.874  0.00  0.00    -0.123 NA
BRANCH  21  25
ATOM     25  C3  non d ame     -13.207  11.658  71.829  0.00  0.00    -0.029 C 
ATOM     26  H2  non d ame     -13.598  11.762  72.842  0.00  0.00     0.036 H 
ATOM     27  H3  non d ame     -12.376  12.349  71.688  0.00  0.00     0.036 H 
ATOM     28  H4  non d ame     -13.994  11.887  71.110  0.00  0.00     0.036 H 
ENDBRANCH  21  25
ENDBRANCH  16  19
ENDBRANCH  13  15
BRANCH  13  29
ATOM     29  C8  non d ame     -10.478   5.013  68.163  0.00  0.00    -0.049 C 
ATOM     30  H7  non d ame     -10.773   6.013  67.845  0.00  0.00     0.030 H 
ATOM     31  H8  non d ame      -9.669   4.653  67.526  0.00  0.00     0.030 H 
ATOM     32  H9  non d ame     -11.332   4.341  68.081  0.00  0.00     0.030 H 
ENDBRANCH  13  29
ENDBRANCH  10  13
ENDBRANCH   7   9
BRANCH   7  33
ATOM     33  C11 non d ame      -5.460   4.994  68.248  0.00  0.00    -0.033 C 
ATOM     34  H12 non d ame      -4.898   5.169  67.330  0.00  0.00     0.042 H 
BRANCH  33  35
ATOM     35  C12 non d ame      -4.429   4.871  69.413  0.00  0.00    -0.071 C 
ATOM     36  H13 non d ame      -3.597   5.552  69.234  0.00  0.00     0.028 H 
ATOM     37  H14 non d ame      -4.912   5.127  70.355  0.00  0.00     0.028 H 
ATOM     38  H15 non d ame      -4.058   3.847  69.462  0.00  0.00     0.028 H 
ENDBRANCH  33  35
BRANCH  33  39
ATOM     39  C13 non d ame      -6.276   3.673  68.071  0.00  0.00    -0.071 C 
ATOM     40  H16 non d ame      -7.114   3.668  68.768  0.00  0.00     0.028 H 
ATOM     41  H17 non d ame      -6.651   3.611  67.050  0.00  0.00     0.028 H 
ATOM     42  H18 non d ame      -5.630   2.819  68.274  0.00  0.00     0.028 H 
ENDBRANCH  33  39
ENDBRANCH   7  33
ENDBRANCH   4   7
ENDBRANCH   1   3
BRANCH   1  43
ATOM     43  C15 non d ame      -7.681   9.755  65.683  0.00  0.00     0.240 C 
ATOM     44  O5  non d ame      -6.989  10.682  65.960  0.00  0.00    -0.271 OA
ATOM     45  N6  non d ame      -9.164   9.893  65.745  0.00  0.00    -0.355 N 
ATOM     46  H46 non d ame      -9.762   9.114  65.509  0.00  0.00     0.162 HD
BRANCH  45  47
ATOM     47  C20 non d ame      -9.764  11.180  66.158  0.00  0.00     0.013 C 
ATOM     48  H30 non d ame      -9.003  11.953  66.053  0.00  0.00     0.072 H 
BRANCH  47  49
ATOM     49  C21 non d ame     -10.207  11.085  67.600  0.00  0.00    -0.038 C 
ATOM     50  H31 non d ame     -10.460  10.037  67.763  0.00  0.00     0.036 H 
ATOM     51  H32 non d ame      -9.412  11.552  68.183  0.00  0.00     0.036 H 
BRANCH  49  52
ATOM     52  C22 non d ame     -11.491  11.894  67.887  0.00  0.00     0.018 C 
ATOM     53  H33 non d ame     -11.956  12.066  66.915  0.00  0.00     0.048 H 
ATOM     54  H34 non d ame     -12.025  11.337  68.657  0.00  0.00     0.048 H 
BRANCH  52  55
ATOM     55  C23 non d ame     -11.221  13.303  68.486  0.00  0.00     0.259 C 
ATOM     56  O7  non d ame     -10.116  13.638  68.765  0.00  0.00    -0.265 OA
BRANCH  55  57
ATOM     57  O8  non d ame     -12.314  14.185  68.711  0.00  0.00    -0.317 OA
BRANCH  57  58
ATOM     58  C29 non d ame     -11.937  15.454  69.255  0.00  0.00     0.052 C 
ATOM     59  H47 non d ame     -10.848  15.454  69.277  0.00  0.00     0.082 H 
ATOM     60  H48 non d ame     -12.470  16.198  68.663  0.00  0.00     0.082 H 
BRANCH  58  61
ATOM     61  C35 non d ame     -12.458  15.522  70.715  0.00  0.00    -0.034 A 
ATOM     62  C30 non d ame     -13.766  15.149  71.006  0.00  0.00    -0.075 A 
ATOM     63  C31 non d ame     -14.235  15.211  72.317  0.00  0.00    -0.082 A 
ATOM     64  H49 non d ame     -14.424  14.809  70.207  0.00  0.00     0.084 H 
ATOM     65  C32 non d ame     -13.390  15.650  73.340  0.00  0.00    -0.083 A 
ATOM     66  H50 non d ame     -15.259  14.916  72.542  0.00  0.00     0.083 H 
ATOM     67  C33 non d ame     -12.086  16.025  73.045  0.00  0.00    -0.082 A 
ATOM     68  H51 non d ame     -13.748  15.701  74.368  0.00  0.00     0.083 H 
ATOM     69  C34 non d ame     -11.613  15.962  71.736  0.00  0.00    -0.075 A 
ATOM     70  H52 non d ame     -11.430  16.369  73.845  0.00  0.00     0.083 H 
ATOM     71  H53 non d ame     -10.586  16.257  71.512  0.00  0.00     0.084 H 
ENDBRANCH  58  61
ENDBRANCH  57  58
ENDBRANCH  55  57
ENDBRANCH  52  55
ENDBRANCH  49  52
ENDBRANCH  47  49
BRANCH  47  72
ATOM     72  C24 non d ame     -10.967  11.495  65.273  0.00  0.00    -0.039 C 
ATOM     73  H35 non d ame     -11.084  10.629  64.622  0.00  0.00     0.036 H 
ATOM     74  H36 non d ame     -11.768  11.772  65.960  0.00  0.00     0.036 H 
BRANCH  72  75
ATOM     75  C25 non d ame     -10.695  12.762  64.331  0.00  0.00    -0.001 C 
ATOM     76  C26 non d ame     -11.102  14.146  65.120  0.00  0.00    -0.035 C 
ATOM     77  C27 non d ame     -11.925  14.874  64.328  0.00  0.00     0.085 C 
ATOM     78  H38 non d ame     -11.723  13.914  65.985  0.00  0.00     0.036 H 
ATOM     79  H39 non d ame     -10.226  14.784  65.233  0.00  0.00     0.036 H 
ATOM     80  N5  non d ame     -12.376  13.968  63.208  0.00  0.00    -0.049 N 
ATOM     81  H40 non d ame     -12.784  15.125  64.951  0.00  0.00     0.075 H 
ATOM     82  H41 non d ame     -11.302  15.667  63.912  0.00  0.00     0.075 H 
ATOM     83  C28 non d ame     -11.387  12.692  63.243  0.00  0.00     0.193 C 
ATOM     84  H42 non d ame     -13.308  13.658  63.448  0.00  0.00     0.280 HD
ATOM     85  H43 non d ame     -12.219  14.473  62.349  0.00  0.00     0.280 HD
ATOM     86  H44 non d ame     -10.589  12.591  62.506  0.00  0.00     0.129 H 
ATOM     87  H37 non d ame      -9.709  12.727  63.868  0.00  0.00     0.046 H 
BRANCH  83  88
ATOM     88  O6  non d ame     -12.140  11.482  63.159  0.00  0.00    -0.369 OA
ATOM     89  H45 non d ame     -11.896  10.902  63.884  0.00  0.00     0.212 HD
ENDBRANCH  83  88
ENDBRANCH  72  75
ENDBRANCH  47  72
ENDBRANCH  45  47
ENDBRANCH   1  43
BRANCH   1  90
ATOM     90  C16 non d ame      -7.700   7.907  63.978  0.00  0.00    -0.035 C 
ATOM     91  H21 non d ame      -7.644   6.819  64.033  0.00  0.00     0.037 H 
ATOM     92  H22 non d ame      -8.671   8.401  63.948  0.00  0.00     0.037 H 
BRANCH  90  93
ATOM     93  C17 non d ame      -6.951   8.321  62.672  0.00  0.00    -0.059 C 
ATOM     94  H23 non d ame      -7.120   7.539  61.932  0.00  0.00     0.038 H 
BRANCH  93  95
ATOM     95  C18 non d ame      -7.492   9.661  62.081  0.00  0.00    -0.073 C 
ATOM     96  H24 non d ame      -6.688  10.178  61.556  0.00  0.00     0.028 H 
ATOM     97  H25 non d ame      -8.303   9.450  61.384  0.00  0.00     0.028 H 
ATOM     98  H26 non d ame      -7.863  10.292  62.889  0.00  0.00     0.028 H 
ENDBRANCH  93  95
BRANCH  93  99
ATOM     99  C19 non d ame      -5.441   8.400  62.911  0.00  0.00    -0.073 C 
ATOM    100  H27 non d ame      -5.188   7.854  63.820  0.00  0.00     0.028 H 
ATOM    101  H28 non d ame      -4.916   7.959  62.064  0.00  0.00     0.028 H 
ATOM    102  H29 non d ame      -5.145   9.443  63.020  0.00  0.00     0.028 H 
ENDBRANCH  93  99
ENDBRANCH  90  93
ENDBRANCH   1  90
TORSDOF 26
ENDMDL
MODEL 17
REMARK VINA RESULT:      -5.6      2.293     10.374
REMARK  26 active torsions:
REMARK  status: ('A' for Active; 'I' for Inactive)
REMARK    1  A    between atoms: C2_2  and  C3_3 
REMARK    2  A    between atoms: C4_6  and  C5_7 
REMARK       I    between atoms: C5_7  and  N2_9 
REMARK    3  A    between atoms: N2_9  and  C6_10 
REMARK    4  A    between atoms: C6_10  and  C7_11 
REMARK    5  A    between atoms: C6_10  and  C8_13 
REMARK       I    between atoms: C7_11  and  N3_14 
REMARK    6  A    between atoms: N3_14  and  C9_15 
REMARK    7  A    between atoms: C9_15  and  C10_16 
REMARK    8  A    between atoms: C9_15  and  C11_18 
REMARK       I    between atoms: C10_16  and  N4_21 
REMARK    9  A    between atoms: C11_18  and  C12_19 
REMARK   10  A    between atoms: C11_18  and  C13_20 
REMARK   11  A    between atoms: N4_21  and  C14_22 
REMARK   12  A    between atoms: C14_22  and  C15_23 
REMARK   13  A    between atoms: C14_22  and  C16_25 
REMARK       I    between atoms: C15_23  and  N6_40 
REMARK   14  A    between atoms: C16_25  and  C17_26 
REMARK   15  A    between atoms: C17_26  and  C18_27 
REMARK   16  A    between atoms: C17_26  and  C19_28 
REMARK   17  A    between atoms: C20_29  and  C21_30 
REMARK   18  A    between atoms: C20_29  and  C24_33 
REMARK   19  A    between atoms: C20_29  and  N6_40 
REMARK   20  A    between atoms: C21_30  and  C22_31 
REMARK   21  A    between atoms: C22_31  and  C23_32 
REMARK   22  A    between atoms: C23_32  and  O8_43 
REMARK   23  A    between atoms: C24_33  and  C25_34 
REMARK   24  A    between atoms: C28_38  and  O6_39 
REMARK   25  A    between atoms: C29_42  and  O8_43 
REMARK   26  A    between atoms: C29_42  and  C35_49 
ROOT
ATOM      1  C14 non d ame     -11.185   9.018  69.723  0.00  0.00     0.089 C 
ATOM      2  H20 non d ame     -12.046   8.378  69.531  0.00  0.00     0.087 H 
ENDROOT
BRANCH   1   3
ATOM      3  N4  non d ame     -10.032   8.152  69.924  0.00  0.00    -0.346 N 
ATOM      4  C10 non d ame     -10.211   6.763  70.483  0.00  0.00     0.241 C 
ATOM      5  O4  non d ame     -11.293   6.365  70.766  0.00  0.00    -0.271 OA
ATOM      6  H19 non d ame      -9.120   8.511  69.679  0.00  0.00     0.163 HD
BRANCH   4   7
ATOM      7  C9  non d ame      -9.008   5.879  70.679  0.00  0.00     0.092 C 
ATOM      8  H11 non d ame      -9.254   5.091  71.391  0.00  0.00     0.088 H 
BRANCH   7   9
ATOM      9  N3  non d ame      -8.671   5.224  69.411  0.00  0.00    -0.346 N 
ATOM     10  C7  non d ame      -9.101   3.871  69.161  0.00  0.00     0.240 C 
ATOM     11  O3  non d ame      -9.718   3.292  69.970  0.00  0.00    -0.271 OA
ATOM     12  H10 non d ame      -8.137   5.710  68.705  0.00  0.00     0.163 HD
BRANCH  10  13
ATOM     13  C6  non d ame      -8.735   3.179  67.812  0.00  0.00     0.086 C 
ATOM     14  H6  non d ame      -9.597   2.725  67.323  0.00  0.00     0.086 H 
BRANCH  13  15
ATOM     15  N2  non d ame      -8.216   4.180  66.894  0.00  0.00    -0.343 N 
ATOM     16  C5  non d ame      -9.071   4.681  65.816  0.00  0.00     0.273 C 
ATOM     17  O2  non d ame     -10.173   4.272  65.694  0.00  0.00    -0.266 OA
ATOM     18  H5  non d ame      -7.273   4.523  67.004  0.00  0.00     0.163 HD
BRANCH  16  19
ATOM     19  C4  non d ame      -8.537   5.741  64.840  0.00  0.00     0.154 A 
ATOM     20  C1  non d ame      -8.244   7.112  65.128  0.00  0.00    -0.017 A 
ATOM     21  C2  non d ame      -7.786   7.652  63.906  0.00  0.00     0.077 A 
ATOM     22  H1  non d ame      -8.348   7.636  66.079  0.00  0.00     0.091 H 
ATOM     23  O1  non d ame      -7.814   6.693  63.025  0.00  0.00    -0.218 OA
ATOM     24  N1  non d ame      -8.250   5.569  63.547  0.00  0.00    -0.123 NA
BRANCH  21  25
ATOM     25  C3  non d ame      -7.339   9.087  63.664  0.00  0.00    -0.029 C 
ATOM     26  H2  non d ame      -6.265   9.107  63.473  0.00  0.00     0.036 H 
ATOM     27  H3  non d ame      -7.868   9.492  62.802  0.00  0.00     0.036 H 
ATOM     28  H4  non d ame      -7.563   9.691  64.544  0.00  0.00     0.036 H 
ENDBRANCH  21  25
ENDBRANCH  16  19
ENDBRANCH  13  15
BRANCH  13  29
ATOM     29  C8  non d ame      -7.696   2.114  68.054  0.00  0.00    -0.049 C 
ATOM     30  H7  non d ame      -7.186   2.311  68.997  0.00  0.00     0.030 H 
ATOM     31  H8  non d ame      -8.181   1.137  68.101  0.00  0.00     0.030 H 
ATOM     32  H9  non d ame      -6.972   2.121  67.241  0.00  0.00     0.030 H 
ENDBRANCH  13  29
ENDBRANCH  10  13
ENDBRANCH   7   9
BRANCH   7  33
ATOM     33  C11 non d ame      -7.801   6.741  71.152  0.00  0.00    -0.033 C 
ATOM     34  H12 non d ame      -7.790   7.649  70.549  0.00  0.00     0.042 H 
BRANCH  33  35
ATOM     35  C12 non d ame      -7.960   7.171  72.644  0.00  0.00    -0.071 C 
ATOM     36  H13 non d ame      -7.791   8.244  72.732  0.00  0.00     0.028 H 
ATOM     37  H14 non d ame      -8.967   6.933  72.985  0.00  0.00     0.028 H 
ATOM     38  H15 non d ame      -7.234   6.635  73.255  0.00  0.00     0.028 H 
ENDBRANCH  33  35
BRANCH  33  39
ATOM     39  C13 non d ame      -6.452   5.989  70.919  0.00  0.00    -0.071 C 
ATOM     40  H16 non d ame      -6.097   5.579  71.865  0.00  0.00     0.028 H 
ATOM     41  H17 non d ame      -6.605   5.179  70.206  0.00  0.00     0.028 H 
ATOM     42  H18 non d ame      -5.712   6.686  70.525  0.00  0.00     0.028 H 
ENDBRANCH  33  39
ENDBRANCH   7  33
ENDBRANCH   4   7
ENDBRANCH   1   3
BRANCH   1  43
ATOM     43  C15 non d ame     -10.885   9.974  68.534  0.00  0.00     0.240 C 
ATOM     44  O5  non d ame     -10.836   9.543  67.426  0.00  0.00    -0.271 OA
ATOM     45  N6  non d ame     -10.667  11.429  68.772  0.00  0.00    -0.355 N 
ATOM     46  H46 non d ame     -10.710  11.808  69.708  0.00  0.00     0.162 HD
BRANCH  45  47
ATOM     47  C20 non d ame     -10.384  12.325  67.630  0.00  0.00     0.013 C 
ATOM     48  H30 non d ame      -9.837  11.752  66.882  0.00  0.00     0.072 H 
BRANCH  47  49
ATOM     49  C21 non d ame      -9.544  13.489  68.104  0.00  0.00    -0.038 C 
ATOM     50  H31 non d ame     -10.237  14.171  68.599  0.00  0.00     0.036 H 
ATOM     51  H32 non d ame      -8.719  13.047  68.665  0.00  0.00     0.036 H 
BRANCH  49  52
ATOM     52  C22 non d ame      -8.907  14.281  66.942  0.00  0.00     0.018 C 
ATOM     53  H33 non d ame      -8.021  14.761  67.361  0.00  0.00     0.048 H 
ATOM     54  H34 non d ame      -8.804  13.570  66.122  0.00  0.00     0.048 H 
BRANCH  52  55
ATOM     55  C23 non d ame      -9.802  15.432  66.404  0.00  0.00     0.259 C 
ATOM     56  O7  non d ame     -10.057  15.504  65.246  0.00  0.00    -0.265 OA
BRANCH  55  57
ATOM     57  O8  non d ame     -10.302  16.408  67.309  0.00  0.00    -0.317 OA
BRANCH  57  58
ATOM     58  C29 non d ame     -10.446  17.712  66.739  0.00  0.00     0.052 C 
ATOM     59  H47 non d ame     -10.416  17.568  65.660  0.00  0.00     0.082 H 
ATOM     60  H48 non d ame     -11.332  18.142  67.207  0.00  0.00     0.082 H 
BRANCH  58  61
ATOM     61  C35 non d ame      -9.212  18.556  67.157  0.00  0.00    -0.034 A 
ATOM     62  C30 non d ame      -8.737  18.496  68.462  0.00  0.00    -0.075 A 
ATOM     63  C31 non d ame      -7.629  19.254  68.838  0.00  0.00    -0.082 A 
ATOM     64  H49 non d ame      -9.233  17.856  69.191  0.00  0.00     0.084 H 
ATOM     65  C32 non d ame      -6.997  20.076  67.902  0.00  0.00    -0.083 A 
ATOM     66  H50 non d ame      -7.258  19.203  69.862  0.00  0.00     0.083 H 
ATOM     67  C33 non d ame      -7.476  20.136  66.600  0.00  0.00    -0.082 A 
ATOM     68  H51 non d ame      -6.130  20.672  68.187  0.00  0.00     0.083 H 
ATOM     69  C34 non d ame      -8.582  19.377  66.220  0.00  0.00    -0.075 A 
ATOM     70  H52 non d ame      -6.982  20.780  65.872  0.00  0.00     0.083 H 
ATOM     71  H53 non d ame      -8.952  19.429  65.195  0.00  0.00     0.084 H 
ENDBRANCH  58  61
ENDBRANCH  57  58
ENDBRANCH  55  57
ENDBRANCH  52  55
ENDBRANCH  49  52
ENDBRANCH  47  49
BRANCH  47  72
ATOM     72  C24 non d ame     -11.695  12.846  67.046  0.00  0.00    -0.039 C 
ATOM     73  H35 non d ame     -12.476  12.486  67.717  0.00  0.00     0.036 H 
ATOM     74  H36 non d ame     -11.547  13.918  66.909  0.00  0.00     0.036 H 
BRANCH  72  75
ATOM     75  C25 non d ame     -11.989  12.221  65.601  0.00  0.00    -0.001 C 
ATOM     76  C26 non d ame     -10.578  11.773  64.885  0.00  0.00    -0.035 C 
ATOM     77  C27 non d ame     -10.528  12.310  63.644  0.00  0.00     0.085 C 
ATOM     78  H38 non d ame      -9.736  12.237  65.398  0.00  0.00     0.036 H 
ATOM     79  H39 non d ame     -10.578  10.698  64.699  0.00  0.00     0.036 H 
ATOM     80  N5  non d ame     -11.621  13.349  63.567  0.00  0.00    -0.049 N 
ATOM     81  H40 non d ame      -9.559  12.808  63.580  0.00  0.00     0.075 H 
ATOM     82  H41 non d ame     -10.767  11.493  62.963  0.00  0.00     0.075 H 
ATOM     83  C28 non d ame     -12.583  13.075  64.835  0.00  0.00     0.193 C 
ATOM     84  H42 non d ame     -11.173  14.245  63.692  0.00  0.00     0.280 HD
ATOM     85  H43 non d ame     -12.139  13.157  62.722  0.00  0.00     0.280 HD
ATOM     86  H44 non d ame     -13.548  12.586  64.701  0.00  0.00     0.129 H 
ATOM     87  H37 non d ame     -12.790  11.482  65.626  0.00  0.00     0.046 H 
BRANCH  83  88
ATOM     88  O6  non d ame     -12.867  14.301  65.511  0.00  0.00    -0.369 OA
ATOM     89  H45 non d ame     -13.056  14.120  66.434  0.00  0.00     0.212 HD
ENDBRANCH  83  88
ENDBRANCH  72  75
ENDBRANCH  47  72
ENDBRANCH  45  47
ENDBRANCH   1  43
BRANCH   1  90
ATOM     90  C16 non d ame     -11.421   9.832  70.986  0.00  0.00    -0.035 C 
ATOM     91  H21 non d ame     -11.074   9.201  71.805  0.00  0.00     0.037 H 
ATOM     92  H22 non d ame     -10.945  10.794  70.802  0.00  0.00     0.037 H 
BRANCH  90  93
ATOM     93  C17 non d ame     -12.927  10.129  71.268  0.00  0.00    -0.059 C 
ATOM     94  H23 non d ame     -13.455  10.094  70.314  0.00  0.00     0.038 H 
BRANCH  93  95
ATOM     95  C18 non d ame     -13.574   9.065  72.210  0.00  0.00    -0.073 C 
ATOM     96  H24 non d ame     -14.659   9.156  72.171  0.00  0.00     0.028 H 
ATOM     97  H25 non d ame     -13.282   8.066  71.883  0.00  0.00     0.028 H 
ATOM     98  H26 non d ame     -13.231   9.227  73.231  0.00  0.00     0.028 H 
ENDBRANCH  93  95
BRANCH  93  99
ATOM     99  C19 non d ame     -13.109  11.540  71.834  0.00  0.00    -0.073 C 
ATOM    100  H27 non d ame     -12.670  12.265  71.149  0.00  0.00     0.028 H 
ATOM    101  H28 non d ame     -14.172  11.750  71.954  0.00  0.00     0.028 H 
ATOM    102  H29 non d ame     -12.614  11.609  72.802  0.00  0.00     0.028 H 
ENDBRANCH  93  99
ENDBRANCH  90  93
ENDBRANCH   1  90
TORSDOF 26
ENDMDL
MODEL 18
REMARK VINA RESULT:      -5.6      2.372      5.683
REMARK  26 active torsions:
REMARK  status: ('A' for Active; 'I' for Inactive)
REMARK    1  A    between atoms: C2_2  and  C3_3 
REMARK    2  A    between atoms: C4_6  and  C5_7 
REMARK       I    between atoms: C5_7  and  N2_9 
REMARK    3  A    between atoms: N2_9  and  C6_10 
REMARK    4  A    between atoms: C6_10  and  C7_11 
REMARK    5  A    between atoms: C6_10  and  C8_13 
REMARK       I    between atoms: C7_11  and  N3_14 
REMARK    6  A    between atoms: N3_14  and  C9_15 
REMARK    7  A    between atoms: C9_15  and  C10_16 
REMARK    8  A    between atoms: C9_15  and  C11_18 
REMARK       I    between atoms: C10_16  and  N4_21 
REMARK    9  A    between atoms: C11_18  and  C12_19 
REMARK   10  A    between atoms: C11_18  and  C13_20 
REMARK   11  A    between atoms: N4_21  and  C14_22 
REMARK   12  A    between atoms: C14_22  and  C15_23 
REMARK   13  A    between atoms: C14_22  and  C16_25 
REMARK       I    between atoms: C15_23  and  N6_40 
REMARK   14  A    between atoms: C16_25  and  C17_26 
REMARK   15  A    between atoms: C17_26  and  C18_27 
REMARK   16  A    between atoms: C17_26  and  C19_28 
REMARK   17  A    between atoms: C20_29  and  C21_30 
REMARK   18  A    between atoms: C20_29  and  C24_33 
REMARK   19  A    between atoms: C20_29  and  N6_40 
REMARK   20  A    between atoms: C21_30  and  C22_31 
REMARK   21  A    between atoms: C22_31  and  C23_32 
REMARK   22  A    between atoms: C23_32  and  O8_43 
REMARK   23  A    between atoms: C24_33  and  C25_34 
REMARK   24  A    between atoms: C28_38  and  O6_39 
REMARK   25  A    between atoms: C29_42  and  O8_43 
REMARK   26  A    between atoms: C29_42  and  C35_49 
ROOT
ATOM      1  C14 non d ame      -6.998   6.497  65.418  0.00  0.00     0.089 C 
ATOM      2  H20 non d ame      -6.558   5.974  64.569  0.00  0.00     0.087 H 
ENDROOT
BRANCH   1   3
ATOM      3  N4  non d ame      -7.440   7.801  64.948  0.00  0.00    -0.346 N 
ATOM      4  C10 non d ame      -8.110   7.940  63.604  0.00  0.00     0.241 C 
ATOM      5  O4  non d ame      -8.280   6.987  62.917  0.00  0.00    -0.271 OA
ATOM      6  H19 non d ame      -7.284   8.600  65.547  0.00  0.00     0.163 HD
BRANCH   4   7
ATOM      7  C9  non d ame      -8.567   9.297  63.136  0.00  0.00     0.092 C 
ATOM      8  H11 non d ame      -9.444   9.180  62.499  0.00  0.00     0.088 H 
BRANCH   7   9
ATOM      9  N3  non d ame      -8.976  10.101  64.292  0.00  0.00    -0.346 N 
ATOM     10  C7  non d ame     -10.113  10.982  64.191  0.00  0.00     0.240 C 
ATOM     11  O3  non d ame     -10.710  11.058  63.187  0.00  0.00    -0.271 OA
ATOM     12  H10 non d ame      -8.470  10.047  65.164  0.00  0.00     0.163 HD
BRANCH  10  13
ATOM     13  C6  non d ame     -10.541  11.837  65.424  0.00  0.00     0.086 C 
ATOM     14  H6  non d ame     -10.353  11.334  66.373  0.00  0.00     0.086 H 
BRANCH  13  15
ATOM     15  N2  non d ame      -9.759  13.062  65.441  0.00  0.00    -0.343 N 
ATOM     16  C5  non d ame      -9.419  13.682  66.724  0.00  0.00     0.273 C 
ATOM     17  O2  non d ame      -9.780  13.188  67.735  0.00  0.00    -0.266 OA
ATOM     18  H5  non d ame      -9.456  13.478  64.573  0.00  0.00     0.163 HD
BRANCH  16  19
ATOM     19  C4  non d ame      -8.591  14.976  66.758  0.00  0.00     0.154 A 
ATOM     20  C1  non d ame      -8.969  16.258  66.246  0.00  0.00    -0.017 A 
ATOM     21  C2  non d ame      -7.869  17.100  66.523  0.00  0.00     0.077 A 
ATOM     22  H1  non d ame      -9.900  16.535  65.750  0.00  0.00     0.091 H 
ATOM     23  O1  non d ame      -6.970  16.377  67.126  0.00  0.00    -0.218 OA
ATOM     24  N1  non d ame      -7.368  15.134  67.273  0.00  0.00    -0.123 NA
BRANCH  21  25
ATOM     25  C3  non d ame      -7.758  18.579  66.183  0.00  0.00    -0.029 C 
ATOM     26  H2  non d ame      -7.126  18.704  65.303  0.00  0.00     0.036 H 
ATOM     27  H3  non d ame      -8.750  18.980  65.977  0.00  0.00     0.036 H 
ATOM     28  H4  non d ame      -7.318  19.115  67.025  0.00  0.00     0.036 H 
ENDBRANCH  21  25
ENDBRANCH  16  19
ENDBRANCH  13  15
BRANCH  13  29
ATOM     29  C8  non d ame     -12.009  12.164  65.327  0.00  0.00    -0.049 C 
ATOM     30  H7  non d ame     -12.242  12.501  64.317  0.00  0.00     0.030 H 
ATOM     31  H8  non d ame     -12.595  11.272  65.556  0.00  0.00     0.030 H 
ATOM     32  H9  non d ame     -12.254  12.952  66.038  0.00  0.00     0.030 H 
ENDBRANCH  13  29
ENDBRANCH  10  13
ENDBRANCH   7   9
BRANCH   7  33
ATOM     33  C11 non d ame      -7.398  10.012  62.397  0.00  0.00    -0.033 C 
ATOM     34  H12 non d ame      -7.089  10.857  63.012  0.00  0.00     0.042 H 
BRANCH  33  35
ATOM     35  C12 non d ame      -6.163   9.070  62.241  0.00  0.00    -0.071 C 
ATOM     36  H13 non d ame      -5.418   9.319  62.996  0.00  0.00     0.028 H 
ATOM     37  H14 non d ame      -6.478   8.034  62.370  0.00  0.00     0.028 H 
ATOM     38  H15 non d ame      -5.733   9.198  61.248  0.00  0.00     0.028 H 
ENDBRANCH  33  35
BRANCH  33  39
ATOM     39  C13 non d ame      -7.866  10.565  61.014  0.00  0.00    -0.071 C 
ATOM     40  H16 non d ame      -8.209  11.593  61.131  0.00  0.00     0.028 H 
ATOM     41  H17 non d ame      -7.035  10.537  60.309  0.00  0.00     0.028 H 
ATOM     42  H18 non d ame      -8.684   9.952  60.636  0.00  0.00     0.028 H 
ENDBRANCH  33  39
ENDBRANCH   7  33
ENDBRANCH   4   7
ENDBRANCH   1   3
BRANCH   1  43
ATOM     43  C15 non d ame      -8.224   5.740  66.004  0.00  0.00     0.240 C 
ATOM     44  O5  non d ame      -8.845   4.997  65.313  0.00  0.00    -0.271 OA
ATOM     45  N6  non d ame      -8.619   5.933  67.428  0.00  0.00    -0.355 N 
ATOM     46  H46 non d ame      -8.096   6.558  68.025  0.00  0.00     0.162 HD
BRANCH  45  47
ATOM     47  C20 non d ame      -9.786   5.205  67.970  0.00  0.00     0.013 C 
ATOM     48  H30 non d ame     -10.203   4.596  67.168  0.00  0.00     0.072 H 
BRANCH  47  49
ATOM     49  C21 non d ame     -10.817   6.200  68.452  0.00  0.00    -0.038 C 
ATOM     50  H31 non d ame     -11.719   5.620  68.648  0.00  0.00     0.036 H 
ATOM     51  H32 non d ame     -10.337   6.752  69.262  0.00  0.00     0.036 H 
BRANCH  49  52
ATOM     52  C22 non d ame     -11.192   7.243  67.377  0.00  0.00     0.018 C 
ATOM     53  H33 non d ame     -10.829   6.837  66.432  0.00  0.00     0.048 H 
ATOM     54  H34 non d ame     -12.256   7.439  67.514  0.00  0.00     0.048 H 
BRANCH  52  55
ATOM     55  C23 non d ame     -10.478   8.611  67.557  0.00  0.00     0.259 C 
ATOM     56  O7  non d ame      -9.391   8.787  67.109  0.00  0.00    -0.265 OA
BRANCH  55  57
ATOM     57  O8  non d ame     -11.131   9.650  68.276  0.00  0.00    -0.317 OA
BRANCH  57  58
ATOM     58  C29 non d ame     -10.369  10.171  69.369  0.00  0.00     0.052 C 
ATOM     59  H47 non d ame      -9.324  10.046  69.087  0.00  0.00     0.082 H 
ATOM     60  H48 non d ame     -10.766  11.169  69.556  0.00  0.00     0.082 H 
BRANCH  58  61
ATOM     61  C35 non d ame     -10.651   9.289  70.614  0.00  0.00    -0.034 A 
ATOM     62  C30 non d ame     -11.960   8.969  70.958  0.00  0.00    -0.075 A 
ATOM     63  C31 non d ame     -12.214   8.176  72.076  0.00  0.00    -0.082 A 
ATOM     64  H49 non d ame     -12.787   9.338  70.352  0.00  0.00     0.084 H 
ATOM     65  C32 non d ame     -11.152   7.705  72.853  0.00  0.00    -0.083 A 
ATOM     66  H50 non d ame     -13.241   7.926  72.342  0.00  0.00     0.083 H 
ATOM     67  C33 non d ame      -9.847   8.030  72.508  0.00  0.00    -0.082 A 
ATOM     68  H51 non d ame     -11.342   7.085  73.729  0.00  0.00     0.083 H 
ATOM     69  C34 non d ame      -9.589   8.820  71.390  0.00  0.00    -0.075 A 
ATOM     70  H52 non d ame      -9.021   7.663  73.118  0.00  0.00     0.083 H 
ATOM     71  H53 non d ame      -8.561   9.070  71.124  0.00  0.00     0.084 H 
ENDBRANCH  58  61
ENDBRANCH  57  58
ENDBRANCH  55  57
ENDBRANCH  52  55
ENDBRANCH  49  52
ENDBRANCH  47  49
BRANCH  47  72
ATOM     72  C24 non d ame      -9.347   4.321  69.135  0.00  0.00    -0.039 C 
ATOM     73  H35 non d ame     -10.157   3.606  69.279  0.00  0.00     0.036 H 
ATOM     74  H36 non d ame      -8.350   3.967  68.872  0.00  0.00     0.036 H 
BRANCH  72  75
ATOM     75  C25 non d ame      -9.207   5.157  70.494  0.00  0.00    -0.001 C 
ATOM     76  C26 non d ame      -7.656   5.668  70.682  0.00  0.00    -0.035 C 
ATOM     77  C27 non d ame      -7.226   5.316  71.916  0.00  0.00     0.085 C 
ATOM     78  H38 non d ame      -6.997   5.112  70.015  0.00  0.00     0.036 H 
ATOM     79  H39 non d ame      -7.620   6.758  70.700  0.00  0.00     0.036 H 
ATOM     80  N5  non d ame      -8.226   4.329  72.468  0.00  0.00    -0.049 N 
ATOM     81  H40 non d ame      -6.274   4.808  71.761  0.00  0.00     0.075 H 
ATOM     82  H41 non d ame      -7.266   6.229  72.510  0.00  0.00     0.075 H 
ATOM     83  C28 non d ame      -9.529   4.440  71.519  0.00  0.00     0.193 C 
ATOM     84  H42 non d ame      -7.819   3.412  72.348  0.00  0.00     0.280 HD
ATOM     85  H43 non d ame      -8.472   4.655  73.391  0.00  0.00     0.280 HD
ATOM     86  H44 non d ame     -10.419   4.968  71.861  0.00  0.00     0.129 H 
ATOM     87  H37 non d ame      -9.992   5.906  70.601  0.00  0.00     0.046 H 
BRANCH  83  88
ATOM     88  O6  non d ame      -9.978   3.136  71.146  0.00  0.00    -0.369 OA
ATOM     89  H45 non d ame      -9.407   2.475  71.542  0.00  0.00     0.212 HD
ENDBRANCH  83  88
ENDBRANCH  72  75
ENDBRANCH  47  72
ENDBRANCH  45  47
ENDBRANCH   1  43
BRANCH   1  90
ATOM     90  C16 non d ame      -5.949   6.689  66.503  0.00  0.00    -0.035 C 
ATOM     91  H21 non d ame      -5.966   7.754  66.734  0.00  0.00     0.037 H 
ATOM     92  H22 non d ame      -6.196   5.961  67.274  0.00  0.00     0.037 H 
BRANCH  90  93
ATOM     93  C17 non d ame      -4.496   6.363  66.034  0.00  0.00    -0.059 C 
ATOM     94  H23 non d ame      -3.996   5.838  66.848  0.00  0.00     0.038 H 
BRANCH  93  95
ATOM     95  C18 non d ame      -4.475   5.430  64.782  0.00  0.00    -0.073 C 
ATOM     96  H24 non d ame      -4.791   5.994  63.904  0.00  0.00     0.028 H 
ATOM     97  H25 non d ame      -3.464   5.053  64.626  0.00  0.00     0.028 H 
ATOM     98  H26 non d ame      -5.154   4.592  64.940  0.00  0.00     0.028 H 
ENDBRANCH  93  95
BRANCH  93  99
ATOM     99  C19 non d ame      -3.706   7.647  65.770  0.00  0.00    -0.073 C 
ATOM    100  H27 non d ame      -3.341   8.049  66.716  0.00  0.00     0.028 H 
ATOM    101  H28 non d ame      -2.860   7.427  65.119  0.00  0.00     0.028 H 
ATOM    102  H29 non d ame      -4.353   8.380  65.290  0.00  0.00     0.028 H 
ENDBRANCH  93  99
ENDBRANCH  90  93
ENDBRANCH   1  90
TORSDOF 26
ENDMDL
MODEL 19
REMARK VINA RESULT:      -5.6      2.896     10.620
REMARK  26 active torsions:
REMARK  status: ('A' for Active; 'I' for Inactive)
REMARK    1  A    between atoms: C2_2  and  C3_3 
REMARK    2  A    between atoms: C4_6  and  C5_7 
REMARK       I    between atoms: C5_7  and  N2_9 
REMARK    3  A    between atoms: N2_9  and  C6_10 
REMARK    4  A    between atoms: C6_10  and  C7_11 
REMARK    5  A    between atoms: C6_10  and  C8_13 
REMARK       I    between atoms: C7_11  and  N3_14 
REMARK    6  A    between atoms: N3_14  and  C9_15 
REMARK    7  A    between atoms: C9_15  and  C10_16 
REMARK    8  A    between atoms: C9_15  and  C11_18 
REMARK       I    between atoms: C10_16  and  N4_21 
REMARK    9  A    between atoms: C11_18  and  C12_19 
REMARK   10  A    between atoms: C11_18  and  C13_20 
REMARK   11  A    between atoms: N4_21  and  C14_22 
REMARK   12  A    between atoms: C14_22  and  C15_23 
REMARK   13  A    between atoms: C14_22  and  C16_25 
REMARK       I    between atoms: C15_23  and  N6_40 
REMARK   14  A    between atoms: C16_25  and  C17_26 
REMARK   15  A    between atoms: C17_26  and  C18_27 
REMARK   16  A    between atoms: C17_26  and  C19_28 
REMARK   17  A    between atoms: C20_29  and  C21_30 
REMARK   18  A    between atoms: C20_29  and  C24_33 
REMARK   19  A    between atoms: C20_29  and  N6_40 
REMARK   20  A    between atoms: C21_30  and  C22_31 
REMARK   21  A    between atoms: C22_31  and  C23_32 
REMARK   22  A    between atoms: C23_32  and  O8_43 
REMARK   23  A    between atoms: C24_33  and  C25_34 
REMARK   24  A    between atoms: C28_38  and  O6_39 
REMARK   25  A    between atoms: C29_42  and  O8_43 
REMARK   26  A    between atoms: C29_42  and  C35_49 
ROOT
ATOM      1  C14 non d ame     -10.793  13.139  64.941  0.00  0.00     0.089 C 
ATOM      2  H20 non d ame     -11.201  13.091  63.931  0.00  0.00     0.087 H 
ENDROOT
BRANCH   1   3
ATOM      3  N4  non d ame      -9.742  12.137  65.037  0.00  0.00    -0.346 N 
ATOM      4  C10 non d ame      -9.686  10.995  64.054  0.00  0.00     0.241 C 
ATOM      5  O4  non d ame     -10.500  10.901  63.196  0.00  0.00    -0.271 OA
ATOM      6  H19 non d ame      -9.060  12.234  65.777  0.00  0.00     0.163 HD
BRANCH   4   7
ATOM      7  C9  non d ame      -8.588   9.970  64.165  0.00  0.00     0.092 C 
ATOM      8  H11 non d ame      -7.802  10.355  64.815  0.00  0.00     0.088 H 
BRANCH   7   9
ATOM      9  N3  non d ame      -9.114   8.756  64.796  0.00  0.00    -0.346 N 
ATOM     10  C7  non d ame      -9.179   8.659  66.233  0.00  0.00     0.240 C 
ATOM     11  O3  non d ame      -8.811   9.550  66.898  0.00  0.00    -0.271 OA
ATOM     12  H10 non d ame      -9.433   7.979  64.235  0.00  0.00     0.163 HD
BRANCH  10  13
ATOM     13  C6  non d ame      -9.736   7.363  66.897  0.00  0.00     0.086 C 
ATOM     14  H6  non d ame     -10.430   6.823  66.253  0.00  0.00     0.086 H 
BRANCH  13  15
ATOM     15  N2  non d ame      -8.631   6.459  67.167  0.00  0.00    -0.343 N 
ATOM     16  C5  non d ame      -8.117   5.607  66.092  0.00  0.00     0.273 C 
ATOM     17  O2  non d ame      -8.602   5.655  65.015  0.00  0.00    -0.266 OA
ATOM     18  H5  non d ame      -8.223   6.423  68.090  0.00  0.00     0.163 HD
BRANCH  16  19
ATOM     19  C4  non d ame      -6.947   4.648  66.362  0.00  0.00     0.154 A 
ATOM     20  C1  non d ame      -5.649   4.677  65.759  0.00  0.00    -0.017 A 
ATOM     21  C2  non d ame      -4.953   3.595  66.342  0.00  0.00     0.077 A 
ATOM     22  H1  non d ame      -5.270   5.376  65.013  0.00  0.00     0.091 H 
ATOM     23  O1  non d ame      -5.765   3.019  67.181  0.00  0.00    -0.218 OA
ATOM     24  N1  non d ame      -6.935   3.616  67.209  0.00  0.00    -0.123 NA
BRANCH  21  25
ATOM     25  C3  non d ame      -3.519   3.181  66.045  0.00  0.00    -0.029 C 
ATOM     26  H2  non d ame      -3.510   2.449  65.236  0.00  0.00     0.036 H 
ATOM     27  H3  non d ame      -2.942   4.056  65.748  0.00  0.00     0.036 H 
ATOM     28  H4  non d ame      -3.074   2.740  66.938  0.00  0.00     0.036 H 
ENDBRANCH  21  25
ENDBRANCH  16  19
ENDBRANCH  13  15
BRANCH  13  29
ATOM     29  C8  non d ame     -10.439   7.716  68.183  0.00  0.00    -0.049 C 
ATOM     30  H7  non d ame     -10.415   8.796  68.327  0.00  0.00     0.030 H 
ATOM     31  H8  non d ame     -11.476   7.379  68.135  0.00  0.00     0.030 H 
ATOM     32  H9  non d ame      -9.937   7.228  69.018  0.00  0.00     0.030 H 
ENDBRANCH  13  29
ENDBRANCH  10  13
ENDBRANCH   7   9
BRANCH   7  33
ATOM     33  C11 non d ame      -8.055   9.625  62.743  0.00  0.00    -0.033 C 
ATOM     34  H12 non d ame      -8.675  10.157  62.022  0.00  0.00     0.042 H 
BRANCH  33  35
ATOM     35  C12 non d ame      -6.586  10.116  62.552  0.00  0.00    -0.071 C 
ATOM     36  H13 non d ame      -5.898   9.355  62.922  0.00  0.00     0.028 H 
ATOM     37  H14 non d ame      -6.397  10.292  61.494  0.00  0.00     0.028 H 
ATOM     38  H15 non d ame      -6.438  11.042  63.107  0.00  0.00     0.028 H 
ENDBRANCH  33  35
BRANCH  33  39
ATOM     39  C13 non d ame      -8.183   8.095  62.455  0.00  0.00    -0.071 C 
ATOM     40  H16 non d ame      -7.511   7.544  63.112  0.00  0.00     0.028 H 
ATOM     41  H17 non d ame      -9.210   7.775  62.634  0.00  0.00     0.028 H 
ATOM     42  H18 non d ame      -7.917   7.898  61.417  0.00  0.00     0.028 H 
ENDBRANCH  33  39
ENDBRANCH   7  33
ENDBRANCH   4   7
ENDBRANCH   1   3
BRANCH   1  43
ATOM     43  C15 non d ame     -10.180  14.532  65.262  0.00  0.00     0.240 C 
ATOM     44  O5  non d ame     -10.680  15.515  64.816  0.00  0.00    -0.271 OA
ATOM     45  N6  non d ame      -8.976  14.643  66.133  0.00  0.00    -0.355 N 
ATOM     46  H46 non d ame      -8.545  13.817  66.521  0.00  0.00     0.162 HD
BRANCH  45  47
ATOM     47  C20 non d ame      -8.406  15.975  66.429  0.00  0.00     0.013 C 
ATOM     48  H30 non d ame      -8.391  16.548  65.502  0.00  0.00     0.072 H 
BRANCH  47  49
ATOM     49  C21 non d ame      -6.999  15.812  66.958  0.00  0.00    -0.038 C 
ATOM     50  H31 non d ame      -6.362  15.720  66.078  0.00  0.00     0.036 H 
ATOM     51  H32 non d ame      -6.849  16.636  67.656  0.00  0.00     0.036 H 
BRANCH  49  52
ATOM     52  C22 non d ame      -6.811  14.513  67.771  0.00  0.00     0.018 C 
ATOM     53  H33 non d ame      -7.786  14.024  67.777  0.00  0.00     0.048 H 
ATOM     54  H34 non d ame      -5.952  14.009  67.329  0.00  0.00     0.048 H 
BRANCH  52  55
ATOM     55  C23 non d ame      -6.446  14.756  69.262  0.00  0.00     0.259 C 
ATOM     56  O7  non d ame      -6.171  13.843  69.971  0.00  0.00    -0.265 OA
BRANCH  55  57
ATOM     57  O8  non d ame      -6.458  16.082  69.776  0.00  0.00    -0.317 OA
BRANCH  57  58
ATOM     58  C29 non d ame      -5.163  16.590  70.110  0.00  0.00     0.052 C 
ATOM     59  H47 non d ame      -5.025  16.375  71.169  0.00  0.00     0.082 H 
ATOM     60  H48 non d ame      -4.481  16.163  69.374  0.00  0.00     0.082 H 
BRANCH  58  61
ATOM     61  C35 non d ame      -5.189  18.130  69.920  0.00  0.00    -0.034 A 
ATOM     62  C30 non d ame      -6.300  18.742  69.349  0.00  0.00    -0.075 A 
ATOM     63  C31 non d ame      -6.324  20.125  69.179  0.00  0.00    -0.082 A 
ATOM     64  H49 non d ame      -7.151  18.139  69.035  0.00  0.00     0.084 H 
ATOM     65  C32 non d ame      -5.230  20.897  69.581  0.00  0.00    -0.083 A 
ATOM     66  H50 non d ame      -7.196  20.603  68.732  0.00  0.00     0.083 H 
ATOM     67  C33 non d ame      -4.122  20.281  70.148  0.00  0.00    -0.082 A 
ATOM     68  H51 non d ame      -5.240  21.979  69.451  0.00  0.00     0.083 H 
ATOM     69  C34 non d ame      -4.096  18.899  70.322  0.00  0.00    -0.075 A 
ATOM     70  H52 non d ame      -3.269  20.885  70.458  0.00  0.00     0.083 H 
ATOM     71  H53 non d ame      -3.222  18.422  70.769  0.00  0.00     0.084 H 
ENDBRANCH  58  61
ENDBRANCH  57  58
ENDBRANCH  55  57
ENDBRANCH  52  55
ENDBRANCH  49  52
ENDBRANCH  47  49
BRANCH  47  72
ATOM     72  C24 non d ame      -9.265  16.683  67.475  0.00  0.00    -0.039 C 
ATOM     73  H35 non d ame     -10.069  15.986  67.710  0.00  0.00     0.036 H 
ATOM     74  H36 non d ame      -8.572  16.997  68.256  0.00  0.00     0.036 H 
BRANCH  72  75
ATOM     75  C25 non d ame      -9.945  18.008  66.886  0.00  0.00    -0.001 C 
ATOM     76  C26 non d ame      -8.786  19.106  66.493  0.00  0.00    -0.035 C 
ATOM     77  C27 non d ame      -9.096  20.293  67.067  0.00  0.00     0.085 C 
ATOM     78  H38 non d ame      -7.841  18.835  66.962  0.00  0.00     0.036 H 
ATOM     79  H39 non d ame      -8.822  19.323  65.425  0.00  0.00     0.036 H 
ATOM     80  N5  non d ame     -10.182  20.023  68.080  0.00  0.00    -0.049 N 
ATOM     81  H40 non d ame      -8.193  20.609  67.590  0.00  0.00     0.075 H 
ATOM     82  H41 non d ame      -9.505  20.907  66.265  0.00  0.00     0.075 H 
ATOM     83  C28 non d ame     -10.744  18.546  67.747  0.00  0.00     0.193 C 
ATOM     84  H42 non d ame      -9.731  19.998  68.984  0.00  0.00     0.280 HD
ATOM     85  H43 non d ame     -10.915  20.693  67.901  0.00  0.00     0.280 HD
ATOM     86  H44 non d ame     -11.700  18.419  67.238  0.00  0.00     0.129 H 
ATOM     87  H37 non d ame     -10.694  17.784  66.126  0.00  0.00     0.046 H 
BRANCH  83  88
ATOM     88  O6  non d ame     -10.844  17.775  68.945  0.00  0.00    -0.369 OA
ATOM     89  H45 non d ame     -11.677  17.300  68.951  0.00  0.00     0.212 HD
ENDBRANCH  83  88
ENDBRANCH  72  75
ENDBRANCH  47  72
ENDBRANCH  45  47
ENDBRANCH   1  43
BRANCH   1  90
ATOM     90  C16 non d ame     -11.882  12.814  65.952  0.00  0.00    -0.035 C 
ATOM     91  H21 non d ame     -12.585  13.645  65.894  0.00  0.00     0.037 H 
ATOM     92  H22 non d ame     -12.211  11.805  65.707  0.00  0.00     0.037 H 
BRANCH  90  93
ATOM     93  C17 non d ame     -11.373  12.769  67.427  0.00  0.00    -0.059 C 
ATOM     94  H23 non d ame     -10.292  12.900  67.408  0.00  0.00     0.038 H 
BRANCH  93  95
ATOM     95  C18 non d ame     -11.978  13.916  68.296  0.00  0.00    -0.073 C 
ATOM     96  H24 non d ame     -11.595  13.842  69.314  0.00  0.00     0.028 H 
ATOM     97  H25 non d ame     -11.697  14.880  67.872  0.00  0.00     0.028 H 
ATOM     98  H26 non d ame     -13.064  13.829  68.309  0.00  0.00     0.028 H 
ENDBRANCH  93  95
BRANCH  93  99
ATOM     99  C19 non d ame     -11.652  11.402  68.059  0.00  0.00    -0.073 C 
ATOM    100  H27 non d ame     -12.121  10.750  67.322  0.00  0.00     0.028 H 
ATOM    101  H28 non d ame     -10.715  10.958  68.394  0.00  0.00     0.028 H 
ATOM    102  H29 non d ame     -12.321  11.525  68.911  0.00  0.00     0.028 H 
ENDBRANCH  93  99
ENDBRANCH  90  93
ENDBRANCH   1  90
TORSDOF 26
ENDMDL
