MODEL 1
REMARK VINA RESULT:      -7.4      0.000      0.000
REMARK  26 active torsions:
REMARK  status: ('A' for Active; 'I' for Inactive)
REMARK    1  A    between atoms: C2_2  and  C3_3 
REMARK    2  A    between atoms: C4_6  and  C5_7 
REMARK       I    between atoms: C5_7  and  N2_9 
REMARK    3  A    between atoms: N2_9  and  C6_10 
REMARK    4  A    between atoms: C6_10  and  C7_11 
REMARK    5  A    between atoms: C6_10  and  C8_13 
REMARK       I    between atoms: C7_11  and  N3_14 
REMARK    6  A    between atoms: N3_14  and  C9_15 
REMARK    7  A    between atoms: C9_15  and  C10_16 
REMARK    8  A    between atoms: C9_15  and  C11_18 
REMARK       I    between atoms: C10_16  and  N4_21 
REMARK    9  A    between atoms: C11_18  and  C12_19 
REMARK   10  A    between atoms: C11_18  and  C13_20 
REMARK   11  A    between atoms: N4_21  and  C14_22 
REMARK   12  A    between atoms: C14_22  and  C15_23 
REMARK   13  A    between atoms: C14_22  and  C16_25 
REMARK       I    between atoms: C15_23  and  N6_40 
REMARK   14  A    between atoms: C16_25  and  C17_26 
REMARK   15  A    between atoms: C17_26  and  C18_27 
REMARK   16  A    between atoms: C17_26  and  C19_28 
REMARK   17  A    between atoms: C20_29  and  C21_30 
REMARK   18  A    between atoms: C20_29  and  C24_33 
REMARK   19  A    between atoms: C20_29  and  N6_40 
REMARK   20  A    between atoms: C21_30  and  C22_31 
REMARK   21  A    between atoms: C22_31  and  C23_32 
REMARK   22  A    between atoms: C23_32  and  O8_43 
REMARK   23  A    between atoms: C24_33  and  C25_34 
REMARK   24  A    between atoms: C28_38  and  O6_39 
REMARK   25  A    between atoms: C29_42  and  O8_43 
REMARK   26  A    between atoms: C29_42  and  C35_49 
ROOT
ATOM      1  C14 non d ame     -12.060  14.134  70.219  0.00  0.00     0.089 C 
ATOM      2  H20 non d ame     -13.088  14.238  69.870  0.00  0.00     0.087 H 
ENDROOT
BRANCH   1   3
ATOM      3  N4  non d ame     -11.685  12.736  70.067  0.00  0.00    -0.346 N 
ATOM      4  C10 non d ame     -12.396  11.666  70.856  0.00  0.00     0.241 C 
ATOM      5  O4  non d ame     -13.267  11.955  71.610  0.00  0.00    -0.271 OA
ATOM      6  H19 non d ame     -10.940  12.512  69.422  0.00  0.00     0.163 HD
BRANCH   4   7
ATOM      7  C9  non d ame     -11.999  10.224  70.683  0.00  0.00     0.092 C 
ATOM      8  H11 non d ame     -12.426   9.843  69.755  0.00  0.00     0.088 H 
BRANCH   7   9
ATOM      9  N3  non d ame     -10.541  10.130  70.558  0.00  0.00    -0.346 N 
ATOM     10  C7  non d ame      -9.922  10.209  69.258  0.00  0.00     0.240 C 
ATOM     11  O3  non d ame     -10.582  10.346  68.301  0.00  0.00    -0.271 OA
ATOM     12  H10 non d ame      -9.959  10.010  71.374  0.00  0.00     0.163 HD
BRANCH  10  13
ATOM     13  C6  non d ame      -8.370  10.105  69.132  0.00  0.00     0.086 C 
ATOM     14  H6  non d ame      -8.049   9.746  68.154  0.00  0.00     0.086 H 
BRANCH  13  15
ATOM     15  N2  non d ame      -7.794  11.429  69.299  0.00  0.00    -0.343 N 
ATOM     16  C5  non d ame      -7.584  12.277  68.124  0.00  0.00     0.273 C 
ATOM     17  O2  non d ame      -7.880  11.885  67.049  0.00  0.00    -0.266 OA
ATOM     18  H5  non d ame      -7.543  11.756  70.221  0.00  0.00     0.163 HD
BRANCH  16  19
ATOM     19  C4  non d ame      -6.978  13.680  68.286  0.00  0.00     0.154 A 
ATOM     20  C1  non d ame      -6.701  14.366  69.511  0.00  0.00    -0.017 A 
ATOM     21  C2  non d ame      -6.156  15.608  69.118  0.00  0.00     0.077 A 
ATOM     22  H1  non d ame      -6.869  14.016  70.531  0.00  0.00     0.091 H 
ATOM     23  O1  non d ame      -6.126  15.624  67.817  0.00  0.00    -0.218 OA
ATOM     24  N1  non d ame      -6.602  14.510  67.309  0.00  0.00    -0.123 NA
BRANCH  21  25
ATOM     25  C3  non d ame      -5.687  16.721  70.045  0.00  0.00    -0.029 C 
ATOM     26  H2  non d ame      -6.475  16.953  70.763  0.00  0.00     0.036 H 
ATOM     27  H3  non d ame      -4.794  16.397  70.579  0.00  0.00     0.036 H 
ATOM     28  H4  non d ame      -5.456  17.611  69.459  0.00  0.00     0.036 H 
ENDBRANCH  21  25
ENDBRANCH  16  19
ENDBRANCH  13  15
BRANCH  13  29
ATOM     29  C8  non d ame      -7.838   9.173  70.191  0.00  0.00    -0.049 C 
ATOM     30  H7  non d ame      -7.220   8.406  69.723  0.00  0.00     0.030 H 
ATOM     31  H8  non d ame      -7.237   9.739  70.904  0.00  0.00     0.030 H 
ATOM     32  H9  non d ame      -8.670   8.701  70.711  0.00  0.00     0.030 H 
ENDBRANCH  13  29
ENDBRANCH  10  13
ENDBRANCH   7   9
BRANCH   7  33
ATOM     33  C11 non d ame     -12.465   9.404  71.922  0.00  0.00    -0.033 C 
ATOM     34  H12 non d ame     -12.606  10.105  72.745  0.00  0.00     0.042 H 
BRANCH  33  35
ATOM     35  C12 non d ame     -13.836   8.708  71.659  0.00  0.00    -0.071 C 
ATOM     36  H13 non d ame     -13.816   7.699  72.072  0.00  0.00     0.028 H 
ATOM     37  H14 non d ame     -14.632   9.280  72.136  0.00  0.00     0.028 H 
ATOM     38  H15 non d ame     -14.018   8.658  70.586  0.00  0.00     0.028 H 
ENDBRANCH  33  35
BRANCH  33  39
ATOM     39  C13 non d ame     -11.376   8.369  72.348  0.00  0.00    -0.071 C 
ATOM     40  H16 non d ame     -10.589   8.877  72.905  0.00  0.00     0.028 H 
ATOM     41  H17 non d ame     -11.829   7.602  72.977  0.00  0.00     0.028 H 
ATOM     42  H18 non d ame     -10.949   7.904  71.459  0.00  0.00     0.028 H 
ENDBRANCH  33  39
ENDBRANCH   7  33
ENDBRANCH   4   7
ENDBRANCH   1   3
BRANCH   1  43
ATOM     43  C15 non d ame     -11.069  15.005  69.396  0.00  0.00     0.240 C 
ATOM     44  O5  non d ame     -10.102  15.456  69.920  0.00  0.00    -0.271 OA
ATOM     45  N6  non d ame     -11.320  15.271  67.951  0.00  0.00    -0.355 N 
ATOM     46  H46 non d ame     -12.136  14.890  67.493  0.00  0.00     0.162 HD
BRANCH  45  47
ATOM     47  C20 non d ame     -10.367  16.100  67.181  0.00  0.00     0.013 C 
ATOM     48  H30 non d ame      -9.368  15.913  67.573  0.00  0.00     0.072 H 
BRANCH  47  49
ATOM     49  C21 non d ame     -10.723  17.560  67.352  0.00  0.00    -0.038 C 
ATOM     50  H31 non d ame     -11.811  17.592  67.424  0.00  0.00     0.036 H 
ATOM     51  H32 non d ame     -10.110  17.916  68.181  0.00  0.00     0.036 H 
BRANCH  49  52
ATOM     52  C22 non d ame     -10.340  18.418  66.127  0.00  0.00     0.018 C 
ATOM     53  H33 non d ame      -9.685  17.791  65.521  0.00  0.00     0.048 H 
ATOM     54  H34 non d ame     -11.282  18.780  65.715  0.00  0.00     0.048 H 
BRANCH  52  55
ATOM     55  C23 non d ame      -9.512  19.683  66.484  0.00  0.00     0.259 C 
ATOM     56  O7  non d ame      -9.996  20.559  67.125  0.00  0.00    -0.265 OA
BRANCH  55  57
ATOM     57  O8  non d ame      -8.171  19.791  66.024  0.00  0.00    -0.317 OA
BRANCH  57  58
ATOM     58  C29 non d ame      -7.325  18.713  66.433  0.00  0.00     0.052 C 
ATOM     59  H47 non d ame      -7.958  18.045  67.015  0.00  0.00     0.082 H 
ATOM     60  H48 non d ame      -6.845  18.352  65.522  0.00  0.00     0.082 H 
BRANCH  58  61
ATOM     61  C35 non d ame      -6.230  19.291  67.368  0.00  0.00    -0.034 A 
ATOM     62  C30 non d ame      -4.892  18.977  67.152  0.00  0.00    -0.075 A 
ATOM     63  C31 non d ame      -3.908  19.496  67.992  0.00  0.00    -0.082 A 
ATOM     64  H49 non d ame      -4.615  18.324  66.325  0.00  0.00     0.084 H 
ATOM     65  C32 non d ame      -4.267  20.331  69.053  0.00  0.00    -0.083 A 
ATOM     66  H50 non d ame      -2.861  19.249  67.819  0.00  0.00     0.083 H 
ATOM     67  C33 non d ame      -5.603  20.640  69.267  0.00  0.00    -0.082 A 
ATOM     68  H51 non d ame      -3.504  20.742  69.715  0.00  0.00     0.083 H 
ATOM     69  C34 non d ame      -6.590  20.125  68.428  0.00  0.00    -0.075 A 
ATOM     70  H52 non d ame      -5.880  21.290  70.098  0.00  0.00     0.083 H 
ATOM     71  H53 non d ame      -7.638  20.373  68.603  0.00  0.00     0.084 H 
ENDBRANCH  58  61
ENDBRANCH  57  58
ENDBRANCH  55  57
ENDBRANCH  52  55
ENDBRANCH  49  52
ENDBRANCH  47  49
BRANCH  47  72
ATOM     72  C24 non d ame     -10.436  15.728  65.702  0.00  0.00    -0.039 C 
ATOM     73  H35 non d ame     -10.786  16.626  65.193  0.00  0.00     0.036 H 
ATOM     74  H36 non d ame      -9.458  15.311  65.462  0.00  0.00     0.036 H 
BRANCH  72  75
ATOM     75  C25 non d ame     -11.519  14.579  65.430  0.00  0.00    -0.001 C 
ATOM     76  C26 non d ame     -10.759  13.148  65.147  0.00  0.00    -0.035 C 
ATOM     77  C27 non d ame     -11.241  12.617  63.998  0.00  0.00     0.085 C 
ATOM     78  H38 non d ame      -9.706  13.322  64.925  0.00  0.00     0.036 H 
ATOM     79  H39 non d ame     -11.042  12.417  65.905  0.00  0.00     0.036 H 
ATOM     80  N5  non d ame     -12.022  13.706  63.303  0.00  0.00    -0.049 N 
ATOM     81  H40 non d ame     -10.364  12.371  63.400  0.00  0.00     0.075 H 
ATOM     82  H41 non d ame     -11.929  11.830  64.308  0.00  0.00     0.075 H 
ATOM     83  C28 non d ame     -12.253  14.862  64.406  0.00  0.00     0.193 C 
ATOM     84  H42 non d ame     -11.421  14.070  62.577  0.00  0.00     0.280 HD
ATOM     85  H43 non d ame     -12.918  13.307  63.062  0.00  0.00     0.280 HD
ATOM     86  H44 non d ame     -13.225  14.982  64.886  0.00  0.00     0.129 H 
ATOM     87  H37 non d ame     -12.316  14.578  66.174  0.00  0.00     0.046 H 
BRANCH  83  88
ATOM     88  O6  non d ame     -11.939  16.140  63.853  0.00  0.00    -0.369 OA
ATOM     89  H45 non d ame     -11.301  16.034  63.144  0.00  0.00     0.212 HD
ENDBRANCH  83  88
ENDBRANCH  72  75
ENDBRANCH  47  72
ENDBRANCH  45  47
ENDBRANCH   1  43
BRANCH   1  90
ATOM     90  C16 non d ame     -11.975  14.514  71.689  0.00  0.00    -0.035 C 
ATOM     91  H21 non d ame     -12.237  13.608  72.237  0.00  0.00     0.037 H 
ATOM     92  H22 non d ame     -10.989  14.960  71.815  0.00  0.00     0.037 H 
BRANCH  90  93
ATOM     93  C17 non d ame     -13.011  15.602  72.116  0.00  0.00    -0.059 C 
ATOM     94  H23 non d ame     -12.773  16.516  71.572  0.00  0.00     0.038 H 
BRANCH  93  95
ATOM     95  C18 non d ame     -14.475  15.198  71.752  0.00  0.00    -0.073 C 
ATOM     96  H24 non d ame     -14.785  15.729  70.852  0.00  0.00     0.028 H 
ATOM     97  H25 non d ame     -14.522  14.124  71.573  0.00  0.00     0.028 H 
ATOM     98  H26 non d ame     -15.140  15.458  72.575  0.00  0.00     0.028 H 
ENDBRANCH  93  95
BRANCH  93  99
ATOM     99  C19 non d ame     -12.888  15.918  73.609  0.00  0.00    -0.073 C 
ATOM    100  H27 non d ame     -13.744  16.512  73.926  0.00  0.00     0.028 H 
ATOM    101  H28 non d ame     -12.861  14.987  74.176  0.00  0.00     0.028 H 
ATOM    102  H29 non d ame     -11.971  16.478  73.787  0.00  0.00     0.028 H 
ENDBRANCH  93  99
ENDBRANCH  90  93
ENDBRANCH   1  90
TORSDOF 26
ENDMDL
MODEL 2
REMARK VINA RESULT:      -7.2      2.897      7.294
REMARK  26 active torsions:
REMARK  status: ('A' for Active; 'I' for Inactive)
REMARK    1  A    between atoms: C2_2  and  C3_3 
REMARK    2  A    between atoms: C4_6  and  C5_7 
REMARK       I    between atoms: C5_7  and  N2_9 
REMARK    3  A    between atoms: N2_9  and  C6_10 
REMARK    4  A    between atoms: C6_10  and  C7_11 
REMARK    5  A    between atoms: C6_10  and  C8_13 
REMARK       I    between atoms: C7_11  and  N3_14 
REMARK    6  A    between atoms: N3_14  and  C9_15 
REMARK    7  A    between atoms: C9_15  and  C10_16 
REMARK    8  A    between atoms: C9_15  and  C11_18 
REMARK       I    between atoms: C10_16  and  N4_21 
REMARK    9  A    between atoms: C11_18  and  C12_19 
REMARK   10  A    between atoms: C11_18  and  C13_20 
REMARK   11  A    between atoms: N4_21  and  C14_22 
REMARK   12  A    between atoms: C14_22  and  C15_23 
REMARK   13  A    between atoms: C14_22  and  C16_25 
REMARK       I    between atoms: C15_23  and  N6_40 
REMARK   14  A    between atoms: C16_25  and  C17_26 
REMARK   15  A    between atoms: C17_26  and  C18_27 
REMARK   16  A    between atoms: C17_26  and  C19_28 
REMARK   17  A    between atoms: C20_29  and  C21_30 
REMARK   18  A    between atoms: C20_29  and  C24_33 
REMARK   19  A    between atoms: C20_29  and  N6_40 
REMARK   20  A    between atoms: C21_30  and  C22_31 
REMARK   21  A    between atoms: C22_31  and  C23_32 
REMARK   22  A    between atoms: C23_32  and  O8_43 
REMARK   23  A    between atoms: C24_33  and  C25_34 
REMARK   24  A    between atoms: C28_38  and  O6_39 
REMARK   25  A    between atoms: C29_42  and  O8_43 
REMARK   26  A    between atoms: C29_42  and  C35_49 
ROOT
ATOM      1  C14 non d ame     -10.057  12.142  65.509  0.00  0.00     0.089 C 
ATOM      2  H20 non d ame      -9.889  12.516  64.499  0.00  0.00     0.087 H 
ENDROOT
BRANCH   1   3
ATOM      3  N4  non d ame      -9.363  10.868  65.626  0.00  0.00    -0.346 N 
ATOM      4  C10 non d ame      -9.151  10.002  64.410  0.00  0.00     0.241 C 
ATOM      5  O4  non d ame      -9.550  10.350  63.348  0.00  0.00    -0.271 OA
ATOM      6  H19 non d ame      -9.034  10.588  66.540  0.00  0.00     0.163 HD
BRANCH   4   7
ATOM      7  C9  non d ame      -8.425   8.689  64.548  0.00  0.00     0.092 C 
ATOM      8  H11 non d ame      -7.481   8.854  65.067  0.00  0.00     0.088 H 
BRANCH   7   9
ATOM      9  N3  non d ame      -9.219   7.777  65.376  0.00  0.00    -0.346 N 
ATOM     10  C7  non d ame      -8.975   7.692  66.794  0.00  0.00     0.240 C 
ATOM     11  O3  non d ame      -8.142   8.350  67.287  0.00  0.00    -0.271 OA
ATOM     12  H10 non d ame      -9.940   7.201  64.965  0.00  0.00     0.163 HD
BRANCH  10  13
ATOM     13  C6  non d ame      -9.821   6.716  67.669  0.00  0.00     0.086 C 
ATOM     14  H6  non d ame      -9.216   6.152  68.379  0.00  0.00     0.086 H 
BRANCH  13  15
ATOM     15  N2  non d ame     -10.770   7.489  68.454  0.00  0.00    -0.343 N 
ATOM     16  C5  non d ame     -10.458   7.812  69.848  0.00  0.00     0.273 C 
ATOM     17  O2  non d ame      -9.444   7.444  70.329  0.00  0.00    -0.266 OA
ATOM     18  H5  non d ame     -11.636   7.798  68.036  0.00  0.00     0.163 HD
BRANCH  16  19
ATOM     19  C4  non d ame     -11.451   8.630  70.689  0.00  0.00     0.154 A 
ATOM     20  C1  non d ame     -11.688  10.040  70.617  0.00  0.00    -0.017 A 
ATOM     21  C2  non d ame     -12.683  10.292  71.588  0.00  0.00     0.077 A 
ATOM     22  H1  non d ame     -11.212  10.769  69.961  0.00  0.00     0.091 H 
ATOM     23  O1  non d ame     -12.977   9.153  72.145  0.00  0.00    -0.218 OA
ATOM     24  N1  non d ame     -12.270   8.169  71.638  0.00  0.00    -0.123 NA
BRANCH  21  25
ATOM     25  C3  non d ame     -13.298  11.644  71.918  0.00  0.00    -0.029 C 
ATOM     26  H2  non d ame     -12.525  12.413  71.890  0.00  0.00     0.036 H 
ATOM     27  H3  non d ame     -14.071  11.879  71.187  0.00  0.00     0.036 H 
ATOM     28  H4  non d ame     -13.740  11.610  72.915  0.00  0.00     0.036 H 
ENDBRANCH  21  25
ENDBRANCH  16  19
ENDBRANCH  13  15
BRANCH  13  29
ATOM     29  C8  non d ame     -10.557   5.747  66.779  0.00  0.00    -0.049 C 
ATOM     30  H7  non d ame     -10.508   6.093  65.746  0.00  0.00     0.030 H 
ATOM     31  H8  non d ame     -10.095   4.762  66.855  0.00  0.00     0.030 H 
ATOM     32  H9  non d ame     -11.598   5.685  67.092  0.00  0.00     0.030 H 
ENDBRANCH  13  29
ENDBRANCH  10  13
ENDBRANCH   7   9
BRANCH   7  33
ATOM     33  C11 non d ame      -8.218   8.060  63.139  0.00  0.00    -0.033 C 
ATOM     34  H12 non d ame      -9.065   8.356  62.520  0.00  0.00     0.042 H 
BRANCH  33  35
ATOM     35  C12 non d ame      -6.925   8.607  62.458  0.00  0.00    -0.071 C 
ATOM     36  H13 non d ame      -6.833   9.675  62.657  0.00  0.00     0.028 H 
ATOM     37  H14 non d ame      -6.055   8.087  62.858  0.00  0.00     0.028 H 
ATOM     38  H15 non d ame      -6.984   8.441  61.382  0.00  0.00     0.028 H 
ENDBRANCH  33  35
BRANCH  33  39
ATOM     39  C13 non d ame      -8.199   6.500  63.221  0.00  0.00    -0.071 C 
ATOM     40  H16 non d ame      -8.271   6.190  64.263  0.00  0.00     0.028 H 
ATOM     41  H17 non d ame      -9.043   6.096  62.661  0.00  0.00     0.028 H 
ATOM     42  H18 non d ame      -7.268   6.127  62.795  0.00  0.00     0.028 H 
ENDBRANCH  33  39
ENDBRANCH   7  33
ENDBRANCH   4   7
ENDBRANCH   1   3
BRANCH   1  43
ATOM     43  C15 non d ame      -9.504  13.109  66.594  0.00  0.00     0.240 C 
ATOM     44  O5  non d ame      -9.588  12.818  67.745  0.00  0.00    -0.271 OA
ATOM     45  N6  non d ame      -8.859  14.394  66.201  0.00  0.00    -0.355 N 
ATOM     46  H46 non d ame      -8.778  14.650  65.227  0.00  0.00     0.162 HD
BRANCH  45  47
ATOM     47  C20 non d ame      -8.337  15.302  67.244  0.00  0.00     0.013 C 
ATOM     48  H30 non d ame      -8.829  15.051  68.184  0.00  0.00     0.072 H 
BRANCH  47  49
ATOM     49  C21 non d ame      -8.647  16.732  66.865  0.00  0.00    -0.038 C 
ATOM     50  H31 non d ame      -8.224  17.347  67.660  0.00  0.00     0.036 H 
ATOM     51  H32 non d ame      -8.294  16.847  65.839  0.00  0.00     0.036 H 
BRANCH  49  52
ATOM     52  C22 non d ame     -10.162  17.031  66.839  0.00  0.00     0.018 C 
ATOM     53  H33 non d ame     -10.260  18.025  66.401  0.00  0.00     0.048 H 
ATOM     54  H34 non d ame     -10.624  16.172  66.351  0.00  0.00     0.048 H 
BRANCH  52  55
ATOM     55  C23 non d ame     -10.805  17.120  68.251  0.00  0.00     0.259 C 
ATOM     56  O7  non d ame     -10.332  17.822  69.085  0.00  0.00    -0.265 OA
BRANCH  55  57
ATOM     57  O8  non d ame     -11.960  16.343  68.542  0.00  0.00    -0.317 OA
BRANCH  57  58
ATOM     58  C29 non d ame     -11.684  15.131  69.250  0.00  0.00     0.052 C 
ATOM     59  H47 non d ame     -12.227  14.349  68.720  0.00  0.00     0.082 H 
ATOM     60  H48 non d ame     -10.598  15.079  69.333  0.00  0.00     0.082 H 
BRANCH  58  61
ATOM     61  C35 non d ame     -12.279  15.263  70.677  0.00  0.00    -0.034 A 
ATOM     62  C30 non d ame     -11.437  15.442  71.769  0.00  0.00    -0.075 A 
ATOM     63  C31 non d ame     -11.972  15.561  73.051  0.00  0.00    -0.082 A 
ATOM     64  H49 non d ame     -10.359  15.488  71.621  0.00  0.00     0.084 H 
ATOM     65  C32 non d ame     -13.355  15.499  73.238  0.00  0.00    -0.083 A 
ATOM     66  H50 non d ame     -11.309  15.702  73.904  0.00  0.00     0.083 H 
ATOM     67  C33 non d ame     -14.192  15.317  72.145  0.00  0.00    -0.082 A 
ATOM     68  H51 non d ame     -13.782  15.591  74.237  0.00  0.00     0.083 H 
ATOM     69  C34 non d ame     -13.662  15.200  70.862  0.00  0.00    -0.075 A 
ATOM     70  H52 non d ame     -15.271  15.267  72.295  0.00  0.00     0.083 H 
ATOM     71  H53 non d ame     -14.326  15.059  70.008  0.00  0.00     0.084 H 
ENDBRANCH  58  61
ENDBRANCH  57  58
ENDBRANCH  55  57
ENDBRANCH  52  55
ENDBRANCH  49  52
ENDBRANCH  47  49
BRANCH  47  72
ATOM     72  C24 non d ame      -6.826  15.125  67.373  0.00  0.00    -0.039 C 
ATOM     73  H35 non d ame      -6.520  14.575  66.483  0.00  0.00     0.036 H 
ATOM     74  H36 non d ame      -6.430  16.124  67.558  0.00  0.00     0.036 H 
BRANCH  72  75
ATOM     75  C25 non d ame      -6.441  14.223  68.641  0.00  0.00    -0.001 C 
ATOM     76  C26 non d ame      -5.249  14.952  69.507  0.00  0.00    -0.035 C 
ATOM     77  C27 non d ame      -4.249  14.062  69.709  0.00  0.00     0.085 C 
ATOM     78  H38 non d ame      -4.777  15.732  68.909  0.00  0.00     0.036 H 
ATOM     79  H39 non d ame      -5.600  15.175  70.514  0.00  0.00     0.036 H 
ATOM     80  N5  non d ame      -4.502  12.895  68.785  0.00  0.00    -0.049 N 
ATOM     81  H40 non d ame      -3.336  14.571  69.397  0.00  0.00     0.075 H 
ATOM     82  H41 non d ame      -4.361  13.728  70.741  0.00  0.00     0.075 H 
ATOM     83  C28 non d ame      -6.026  13.056  68.275  0.00  0.00     0.193 C 
ATOM     84  H42 non d ame      -3.884  13.016  67.995  0.00  0.00     0.280 HD
ATOM     85  H43 non d ame      -4.440  12.062  69.352  0.00  0.00     0.280 HD
ATOM     86  H44 non d ame      -6.816  12.426  68.684  0.00  0.00     0.129 H 
ATOM     87  H37 non d ame      -7.320  13.888  69.191  0.00  0.00     0.046 H 
BRANCH  83  88
ATOM     88  O6  non d ame      -6.092  12.879  66.859  0.00  0.00    -0.369 OA
ATOM     89  H45 non d ame      -6.796  12.263  66.646  0.00  0.00     0.212 HD
ENDBRANCH  83  88
ENDBRANCH  72  75
ENDBRANCH  47  72
ENDBRANCH  45  47
ENDBRANCH   1  43
BRANCH   1  90
ATOM     90  C16 non d ame     -11.545  11.919  65.734  0.00  0.00    -0.035 C 
ATOM     91  H21 non d ame     -11.706  10.854  65.564  0.00  0.00     0.037 H 
ATOM     92  H22 non d ame     -11.757  12.353  66.711  0.00  0.00     0.037 H 
BRANCH  90  93
ATOM     93  C17 non d ame     -12.453  12.671  64.710  0.00  0.00    -0.059 C 
ATOM     94  H23 non d ame     -13.475  12.637  65.087  0.00  0.00     0.038 H 
BRANCH  93  95
ATOM     95  C18 non d ame     -12.051  14.172  64.556  0.00  0.00    -0.073 C 
ATOM     96  H24 non d ame     -12.619  14.618  63.740  0.00  0.00     0.028 H 
ATOM     97  H25 non d ame     -12.270  14.704  65.482  0.00  0.00     0.028 H 
ATOM     98  H26 non d ame     -10.986  14.244  64.340  0.00  0.00     0.028 H 
ENDBRANCH  93  95
BRANCH  93  99
ATOM     99  C19 non d ame     -12.447  11.963  63.352  0.00  0.00    -0.073 C 
ATOM    100  H27 non d ame     -13.397  12.136  62.848  0.00  0.00     0.028 H 
ATOM    101  H28 non d ame     -11.634  12.356  62.741  0.00  0.00     0.028 H 
ATOM    102  H29 non d ame     -12.305  10.893  63.501  0.00  0.00     0.028 H 
ENDBRANCH  93  99
ENDBRANCH  90  93
ENDBRANCH   1  90
TORSDOF 26
ENDMDL
MODEL 3
REMARK VINA RESULT:      -7.0      2.250      9.195
REMARK  26 active torsions:
REMARK  status: ('A' for Active; 'I' for Inactive)
REMARK    1  A    between atoms: C2_2  and  C3_3 
REMARK    2  A    between atoms: C4_6  and  C5_7 
REMARK       I    between atoms: C5_7  and  N2_9 
REMARK    3  A    between atoms: N2_9  and  C6_10 
REMARK    4  A    between atoms: C6_10  and  C7_11 
REMARK    5  A    between atoms: C6_10  and  C8_13 
REMARK       I    between atoms: C7_11  and  N3_14 
REMARK    6  A    between atoms: N3_14  and  C9_15 
REMARK    7  A    between atoms: C9_15  and  C10_16 
REMARK    8  A    between atoms: C9_15  and  C11_18 
REMARK       I    between atoms: C10_16  and  N4_21 
REMARK    9  A    between atoms: C11_18  and  C12_19 
REMARK   10  A    between atoms: C11_18  and  C13_20 
REMARK   11  A    between atoms: N4_21  and  C14_22 
REMARK   12  A    between atoms: C14_22  and  C15_23 
REMARK   13  A    between atoms: C14_22  and  C16_25 
REMARK       I    between atoms: C15_23  and  N6_40 
REMARK   14  A    between atoms: C16_25  and  C17_26 
REMARK   15  A    between atoms: C17_26  and  C18_27 
REMARK   16  A    between atoms: C17_26  and  C19_28 
REMARK   17  A    between atoms: C20_29  and  C21_30 
REMARK   18  A    between atoms: C20_29  and  C24_33 
REMARK   19  A    between atoms: C20_29  and  N6_40 
REMARK   20  A    between atoms: C21_30  and  C22_31 
REMARK   21  A    between atoms: C22_31  and  C23_32 
REMARK   22  A    between atoms: C23_32  and  O8_43 
REMARK   23  A    between atoms: C24_33  and  C25_34 
REMARK   24  A    between atoms: C28_38  and  O6_39 
REMARK   25  A    between atoms: C29_42  and  O8_43 
REMARK   26  A    between atoms: C29_42  and  C35_49 
ROOT
ATOM      1  C14 non d ame      -6.831  13.071  68.047  0.00  0.00     0.089 C 
ATOM      2  H20 non d ame      -6.114  12.967  67.233  0.00  0.00     0.087 H 
ENDROOT
BRANCH   1   3
ATOM      3  N4  non d ame      -7.131  14.488  68.190  0.00  0.00    -0.346 N 
ATOM      4  C10 non d ame      -6.148  15.527  67.710  0.00  0.00     0.241 C 
ATOM      5  O4  non d ame      -5.121  15.197  67.214  0.00  0.00    -0.271 OA
ATOM      6  H19 non d ame      -8.009  14.747  68.617  0.00  0.00     0.163 HD
BRANCH   4   7
ATOM      7  C9  non d ame      -6.477  16.988  67.860  0.00  0.00     0.092 C 
ATOM      8  H11 non d ame      -6.082  17.535  67.004  0.00  0.00     0.088 H 
BRANCH   7   9
ATOM      9  N3  non d ame      -7.932  17.166  67.853  0.00  0.00    -0.346 N 
ATOM     10  C7  non d ame      -8.608  17.534  66.634  0.00  0.00     0.240 C 
ATOM     11  O3  non d ame      -7.996  17.694  65.649  0.00  0.00    -0.271 OA
ATOM     12  H10 non d ame      -8.473  17.033  68.695  0.00  0.00     0.163 HD
BRANCH  10  13
ATOM     13  C6  non d ame     -10.156  17.725  66.634  0.00  0.00     0.086 C 
ATOM     14  H6  non d ame     -10.660  17.092  65.903  0.00  0.00     0.086 H 
BRANCH  13  15
ATOM     15  N2  non d ame     -10.677  17.349  67.937  0.00  0.00    -0.343 N 
ATOM     16  C5  non d ame     -11.217  16.002  68.137  0.00  0.00     0.273 C 
ATOM     17  O2  non d ame     -11.229  15.230  67.243  0.00  0.00    -0.266 OA
ATOM     18  H5  non d ame     -10.665  18.015  68.696  0.00  0.00     0.163 HD
BRANCH  16  19
ATOM     19  C4  non d ame     -11.769  15.590  69.511  0.00  0.00     0.154 A 
ATOM     20  C1  non d ame     -12.353  14.333  69.866  0.00  0.00    -0.017 A 
ATOM     21  C2  non d ame     -12.695  14.463  71.231  0.00  0.00     0.077 A 
ATOM     22  H1  non d ame     -12.505  13.459  69.232  0.00  0.00     0.091 H 
ATOM     23  O1  non d ame     -12.342  15.658  71.606  0.00  0.00    -0.218 OA
ATOM     24  N1  non d ame     -11.801  16.335  70.619  0.00  0.00    -0.123 NA
BRANCH  21  25
ATOM     25  C3  non d ame     -13.351  13.400  72.101  0.00  0.00    -0.029 C 
ATOM     26  H2  non d ame     -12.692  13.155  72.935  0.00  0.00     0.036 H 
ATOM     27  H3  non d ame     -14.297  13.779  72.486  0.00  0.00     0.036 H 
ATOM     28  H4  non d ame     -13.534  12.504  71.507  0.00  0.00     0.036 H 
ENDBRANCH  21  25
ENDBRANCH  16  19
ENDBRANCH  13  15
BRANCH  13  29
ATOM     29  C8  non d ame     -10.489  19.166  66.341  0.00  0.00    -0.049 C 
ATOM     30  H7  non d ame     -10.927  19.625  67.227  0.00  0.00     0.030 H 
ATOM     31  H8  non d ame      -9.577  19.700  66.068  0.00  0.00     0.030 H 
ATOM     32  H9  non d ame     -11.199  19.215  65.517  0.00  0.00     0.030 H 
ENDBRANCH  13  29
ENDBRANCH  10  13
ENDBRANCH   7   9
BRANCH   7  33
ATOM     33  C11 non d ame      -5.899  17.514  69.207  0.00  0.00    -0.033 C 
ATOM     34  H12 non d ame      -6.248  16.848  69.996  0.00  0.00     0.042 H 
BRANCH  33  35
ATOM     35  C12 non d ame      -4.339  17.472  69.212  0.00  0.00    -0.071 C 
ATOM     36  H13 non d ame      -3.956  18.278  69.837  0.00  0.00     0.028 H 
ATOM     37  H14 non d ame      -4.003  16.514  69.608  0.00  0.00     0.028 H 
ATOM     38  H15 non d ame      -3.970  17.594  68.194  0.00  0.00     0.028 H 
ENDBRANCH  33  35
BRANCH  33  39
ATOM     39  C13 non d ame      -6.428  18.951  69.519  0.00  0.00    -0.071 C 
ATOM     40  H16 non d ame      -6.075  19.262  70.501  0.00  0.00     0.028 H 
ATOM     41  H17 non d ame      -6.061  19.646  68.763  0.00  0.00     0.028 H 
ATOM     42  H18 non d ame      -7.518  18.946  69.509  0.00  0.00     0.028 H 
ENDBRANCH  33  39
ENDBRANCH   7  33
ENDBRANCH   4   7
ENDBRANCH   1   3
BRANCH   1  43
ATOM     43  C15 non d ame      -8.158  12.310  67.762  0.00  0.00     0.240 C 
ATOM     44  O5  non d ame      -9.184  12.731  68.191  0.00  0.00    -0.271 OA
ATOM     45  N6  non d ame      -8.151  11.062  66.947  0.00  0.00    -0.355 N 
ATOM     46  H46 non d ame      -7.286  10.698  66.574  0.00  0.00     0.162 HD
BRANCH  45  47
ATOM     47  C20 non d ame      -9.421  10.352  66.684  0.00  0.00     0.013 C 
ATOM     48  H30 non d ame     -10.212  10.865  67.231  0.00  0.00     0.072 H 
BRANCH  47  49
ATOM     49  C21 non d ame      -9.304   8.923  67.165  0.00  0.00    -0.038 C 
ATOM     50  H31 non d ame      -8.586   8.445  66.498  0.00  0.00     0.036 H 
ATOM     51  H32 non d ame      -9.096   8.990  68.234  0.00  0.00     0.036 H 
BRANCH  49  52
ATOM     52  C22 non d ame     -10.623   8.134  67.026  0.00  0.00     0.018 C 
ATOM     53  H33 non d ame     -11.394   8.765  67.470  0.00  0.00     0.048 H 
ATOM     54  H34 non d ame     -10.689   7.851  65.975  0.00  0.00     0.048 H 
BRANCH  52  55
ATOM     55  C23 non d ame     -10.645   6.804  67.831  0.00  0.00     0.259 C 
ATOM     56  O7  non d ame     -10.980   5.791  67.310  0.00  0.00    -0.265 OA
BRANCH  55  57
ATOM     57  O8  non d ame     -10.272   6.814  69.203  0.00  0.00    -0.317 OA
BRANCH  57  58
ATOM     58  C29 non d ame     -11.276   6.301  70.084  0.00  0.00     0.052 C 
ATOM     59  H47 non d ame     -11.995   5.789  69.446  0.00  0.00     0.082 H 
ATOM     60  H48 non d ame     -10.738   5.746  70.853  0.00  0.00     0.082 H 
BRANCH  58  61
ATOM     61  C35 non d ame     -11.986   7.507  70.755  0.00  0.00    -0.034 A 
ATOM     62  C30 non d ame     -11.381   8.760  70.753  0.00  0.00    -0.075 A 
ATOM     63  C31 non d ame     -12.018   9.844  71.355  0.00  0.00    -0.082 A 
ATOM     64  H49 non d ame     -10.409   8.893  70.280  0.00  0.00     0.084 H 
ATOM     65  C32 non d ame     -13.264   9.670  71.963  0.00  0.00    -0.083 A 
ATOM     66  H50 non d ame     -11.542  10.824  71.351  0.00  0.00     0.083 H 
ATOM     67  C33 non d ame     -13.863   8.418  71.966  0.00  0.00    -0.082 A 
ATOM     68  H51 non d ame     -13.770  10.512  72.437  0.00  0.00     0.083 H 
ATOM     69  C34 non d ame     -13.230   7.332  71.362  0.00  0.00    -0.075 A 
ATOM     70  H52 non d ame     -14.834   8.285  72.443  0.00  0.00     0.083 H 
ATOM     71  H53 non d ame     -13.708   6.351  71.367  0.00  0.00     0.084 H 
ENDBRANCH  58  61
ENDBRANCH  57  58
ENDBRANCH  55  57
ENDBRANCH  52  55
ENDBRANCH  49  52
ENDBRANCH  47  49
BRANCH  47  72
ATOM     72  C24 non d ame      -9.718  10.363  65.187  0.00  0.00    -0.039 C 
ATOM     73  H35 non d ame      -8.759  10.187  64.699  0.00  0.00     0.036 H 
ATOM     74  H36 non d ame     -10.537   9.657  65.047  0.00  0.00     0.036 H 
BRANCH  72  75
ATOM     75  C25 non d ame     -10.242  11.796  64.697  0.00  0.00    -0.001 C 
ATOM     76  C26 non d ame     -11.594  12.215  65.533  0.00  0.00    -0.035 C 
ATOM     77  C27 non d ame     -12.560  12.568  64.652  0.00  0.00     0.085 C 
ATOM     78  H38 non d ame     -12.012  11.339  66.030  0.00  0.00     0.036 H 
ATOM     79  H39 non d ame     -11.416  13.129  66.099  0.00  0.00     0.036 H 
ATOM     80  N5  non d ame     -12.099  12.119  63.287  0.00  0.00    -0.049 N 
ATOM     81  H40 non d ame     -13.441  11.993  64.938  0.00  0.00     0.075 H 
ATOM     82  H41 non d ame     -12.590  13.658  64.676  0.00  0.00     0.075 H 
ATOM     83  C28 non d ame     -10.527  11.783  63.437  0.00  0.00     0.193 C 
ATOM     84  H42 non d ame     -12.593  11.261  63.086  0.00  0.00     0.280 HD
ATOM     85  H43 non d ame     -12.201  12.915  62.674  0.00  0.00     0.280 HD
ATOM     86  H44 non d ame      -9.774  12.475  63.056  0.00  0.00     0.129 H 
ATOM     87  H37 non d ame      -9.441  12.533  64.648  0.00  0.00     0.046 H 
BRANCH  83  88
ATOM     88  O6  non d ame     -10.232  10.525  62.829  0.00  0.00    -0.369 OA
ATOM     89  H45 non d ame     -10.994  10.226  62.328  0.00  0.00     0.212 HD
ENDBRANCH  83  88
ENDBRANCH  72  75
ENDBRANCH  47  72
ENDBRANCH  45  47
ENDBRANCH   1  43
BRANCH   1  90
ATOM     90  C16 non d ame      -6.217  12.560  69.341  0.00  0.00    -0.035 C 
ATOM     91  H21 non d ame      -6.223  13.414  70.020  0.00  0.00     0.037 H 
ATOM     92  H22 non d ame      -6.779  11.661  69.592  0.00  0.00     0.037 H 
BRANCH  90  93
ATOM     93  C17 non d ame      -4.725  12.123  69.197  0.00  0.00    -0.059 C 
ATOM     94  H23 non d ame      -4.587  11.218  69.788  0.00  0.00     0.038 H 
BRANCH  93  95
ATOM     95  C18 non d ame      -4.348  11.789  67.719  0.00  0.00    -0.073 C 
ATOM     96  H24 non d ame      -3.288  11.541  67.661  0.00  0.00     0.028 H 
ATOM     97  H25 non d ame      -4.938  10.939  67.376  0.00  0.00     0.028 H 
ATOM     98  H26 non d ame      -4.555  12.652  67.087  0.00  0.00     0.028 H 
ENDBRANCH  93  95
BRANCH  93  99
ATOM     99  C19 non d ame      -3.786  13.187  69.772  0.00  0.00    -0.073 C 
ATOM    100  H27 non d ame      -3.882  14.106  69.194  0.00  0.00     0.028 H 
ATOM    101  H28 non d ame      -4.050  13.381  70.812  0.00  0.00     0.028 H 
ATOM    102  H29 non d ame      -2.758  12.830  69.719  0.00  0.00     0.028 H 
ENDBRANCH  93  99
ENDBRANCH  90  93
ENDBRANCH   1  90
TORSDOF 26
ENDMDL
MODEL 4
REMARK VINA RESULT:      -6.9      3.667      9.689
REMARK  26 active torsions:
REMARK  status: ('A' for Active; 'I' for Inactive)
REMARK    1  A    between atoms: C2_2  and  C3_3 
REMARK    2  A    between atoms: C4_6  and  C5_7 
REMARK       I    between atoms: C5_7  and  N2_9 
REMARK    3  A    between atoms: N2_9  and  C6_10 
REMARK    4  A    between atoms: C6_10  and  C7_11 
REMARK    5  A    between atoms: C6_10  and  C8_13 
REMARK       I    between atoms: C7_11  and  N3_14 
REMARK    6  A    between atoms: N3_14  and  C9_15 
REMARK    7  A    between atoms: C9_15  and  C10_16 
REMARK    8  A    between atoms: C9_15  and  C11_18 
REMARK       I    between atoms: C10_16  and  N4_21 
REMARK    9  A    between atoms: C11_18  and  C12_19 
REMARK   10  A    between atoms: C11_18  and  C13_20 
REMARK   11  A    between atoms: N4_21  and  C14_22 
REMARK   12  A    between atoms: C14_22  and  C15_23 
REMARK   13  A    between atoms: C14_22  and  C16_25 
REMARK       I    between atoms: C15_23  and  N6_40 
REMARK   14  A    between atoms: C16_25  and  C17_26 
REMARK   15  A    between atoms: C17_26  and  C18_27 
REMARK   16  A    between atoms: C17_26  and  C19_28 
REMARK   17  A    between atoms: C20_29  and  C21_30 
REMARK   18  A    between atoms: C20_29  and  C24_33 
REMARK   19  A    between atoms: C20_29  and  N6_40 
REMARK   20  A    between atoms: C21_30  and  C22_31 
REMARK   21  A    between atoms: C22_31  and  C23_32 
REMARK   22  A    between atoms: C23_32  and  O8_43 
REMARK   23  A    between atoms: C24_33  and  C25_34 
REMARK   24  A    between atoms: C28_38  and  O6_39 
REMARK   25  A    between atoms: C29_42  and  O8_43 
REMARK   26  A    between atoms: C29_42  and  C35_49 
ROOT
ATOM      1  C14 non d ame      -9.942   9.190  66.690  0.00  0.00     0.089 C 
ATOM      2  H20 non d ame     -10.938   8.748  66.699  0.00  0.00     0.087 H 
ENDROOT
BRANCH   1   3
ATOM      3  N4  non d ame     -10.091  10.600  66.362  0.00  0.00    -0.346 N 
ATOM      4  C10 non d ame     -11.219  11.405  66.956  0.00  0.00     0.241 C 
ATOM      5  O4  non d ame     -11.997  10.895  67.695  0.00  0.00    -0.271 OA
ATOM      6  H19 non d ame      -9.420  11.015  65.730  0.00  0.00     0.163 HD
BRANCH   4   7
ATOM      7  C9  non d ame     -11.356  12.864  66.611  0.00  0.00     0.092 C 
ATOM      8  H11 non d ame     -12.400  13.161  66.712  0.00  0.00     0.088 H 
BRANCH   7   9
ATOM      9  N3  non d ame     -10.584  13.667  67.564  0.00  0.00    -0.346 N 
ATOM     10  C7  non d ame     -11.241  14.276  68.694  0.00  0.00     0.240 C 
ATOM     11  O3  non d ame     -12.392  14.131  68.851  0.00  0.00    -0.271 OA
ATOM     12  H10 non d ame      -9.590  13.802  67.441  0.00  0.00     0.163 HD
BRANCH  10  13
ATOM     13  C6  non d ame     -10.414  15.132  69.703  0.00  0.00     0.086 C 
ATOM     14  H6  non d ame      -9.491  14.643  70.014  0.00  0.00     0.086 H 
BRANCH  13  15
ATOM     15  N2  non d ame     -10.029  16.376  69.059  0.00  0.00    -0.343 N 
ATOM     16  C5  non d ame      -8.661  16.536  68.559  0.00  0.00     0.273 C 
ATOM     17  O2  non d ame      -7.879  15.658  68.681  0.00  0.00    -0.266 OA
ATOM     18  H5  non d ame     -10.702  17.122  68.960  0.00  0.00     0.163 HD
BRANCH  16  19
ATOM     19  C4  non d ame      -8.240  17.845  67.874  0.00  0.00     0.154 A 
ATOM     20  C1  non d ame      -7.593  17.988  66.605  0.00  0.00    -0.017 A 
ATOM     21  C2  non d ame      -7.426  19.381  66.436  0.00  0.00     0.077 A 
ATOM     22  H1  non d ame      -7.290  17.202  65.913  0.00  0.00     0.091 H 
ATOM     23  O1  non d ame      -7.925  19.961  67.489  0.00  0.00    -0.218 OA
ATOM     24  N1  non d ame      -8.404  19.085  68.343  0.00  0.00    -0.123 NA
BRANCH  21  25
ATOM     25  C3  non d ame      -6.786  20.074  65.242  0.00  0.00    -0.029 C 
ATOM     26  H2  non d ame      -7.029  21.137  65.263  0.00  0.00     0.036 H 
ATOM     27  H3  non d ame      -5.704  19.949  65.287  0.00  0.00     0.036 H 
ATOM     28  H4  non d ame      -7.164  19.634  64.319  0.00  0.00     0.036 H 
ENDBRANCH  21  25
ENDBRANCH  16  19
ENDBRANCH  13  15
BRANCH  13  29
ATOM     29  C8  non d ame     -11.249  15.420  70.924  0.00  0.00    -0.049 C 
ATOM     30  H7  non d ame     -11.907  16.265  70.724  0.00  0.00     0.030 H 
ATOM     31  H8  non d ame     -11.849  14.542  71.170  0.00  0.00     0.030 H 
ATOM     32  H9  non d ame     -10.596  15.659  71.762  0.00  0.00     0.030 H 
ENDBRANCH  13  29
ENDBRANCH  10  13
ENDBRANCH   7   9
BRANCH   7  33
ATOM     33  C11 non d ame     -10.815  13.110  65.172  0.00  0.00    -0.033 C 
ATOM     34  H12 non d ame      -9.986  12.420  65.010  0.00  0.00     0.042 H 
BRANCH  33  35
ATOM     35  C12 non d ame     -11.901  12.798  64.095  0.00  0.00    -0.071 C 
ATOM     36  H13 non d ame     -12.697  13.540  64.158  0.00  0.00     0.028 H 
ATOM     37  H14 non d ame     -11.450  12.833  63.104  0.00  0.00     0.028 H 
ATOM     38  H15 non d ame     -12.313  11.805  64.273  0.00  0.00     0.028 H 
ENDBRANCH  33  35
BRANCH  33  39
ATOM     39  C13 non d ame     -10.269  14.566  65.021  0.00  0.00    -0.071 C 
ATOM     40  H16 non d ame     -10.072  14.773  63.969  0.00  0.00     0.028 H 
ATOM     41  H17 non d ame     -11.007  15.273  65.399  0.00  0.00     0.028 H 
ATOM     42  H18 non d ame      -9.345  14.667  65.590  0.00  0.00     0.028 H 
ENDBRANCH  33  39
ENDBRANCH   7  33
ENDBRANCH   4   7
ENDBRANCH   1   3
BRANCH   1  43
ATOM     43  C15 non d ame      -9.235   9.075  68.071  0.00  0.00     0.240 C 
ATOM     44  O5  non d ame      -8.158   9.555  68.226  0.00  0.00    -0.271 OA
ATOM     45  N6  non d ame      -9.904   8.375  69.204  0.00  0.00    -0.355 N 
ATOM     46  H46 non d ame     -10.820   7.967  69.086  0.00  0.00     0.162 HD
BRANCH  45  47
ATOM     47  C20 non d ame      -9.219   8.275  70.511  0.00  0.00     0.013 C 
ATOM     48  H30 non d ame      -8.298   8.854  70.451  0.00  0.00     0.072 H 
BRANCH  47  49
ATOM     49  C21 non d ame      -8.900   6.826  70.799  0.00  0.00    -0.038 C 
ATOM     50  H31 non d ame      -7.871   6.679  70.469  0.00  0.00     0.036 H 
ATOM     51  H32 non d ame      -9.165   6.669  71.846  0.00  0.00     0.036 H 
BRANCH  49  52
ATOM     52  C22 non d ame      -9.767   5.846  69.979  0.00  0.00     0.018 C 
ATOM     53  H33 non d ame     -10.140   5.111  70.693  0.00  0.00     0.048 H 
ATOM     54  H34 non d ame     -10.467   6.468  69.421  0.00  0.00     0.048 H 
BRANCH  52  55
ATOM     55  C23 non d ame      -8.967   5.042  68.917  0.00  0.00     0.259 C 
ATOM     56  O7  non d ame      -8.528   3.969  69.179  0.00  0.00    -0.265 OA
BRANCH  55  57
ATOM     57  O8  non d ame      -8.751   5.607  67.630  0.00  0.00    -0.317 OA
BRANCH  57  58
ATOM     58  C29 non d ame      -8.932   4.687  66.550  0.00  0.00     0.052 C 
ATOM     59  H47 non d ame      -8.552   3.731  66.910  0.00  0.00     0.082 H 
ATOM     60  H48 non d ame      -9.978   4.780  66.255  0.00  0.00     0.082 H 
BRANCH  58  61
ATOM     61  C35 non d ame      -8.045   5.156  65.367  0.00  0.00    -0.034 A 
ATOM     62  C30 non d ame      -8.579   5.240  64.086  0.00  0.00    -0.075 A 
ATOM     63  C31 non d ame      -7.782   5.661  63.023  0.00  0.00    -0.082 A 
ATOM     64  H49 non d ame      -9.623   4.976  63.915  0.00  0.00     0.084 H 
ATOM     65  C32 non d ame      -6.444   5.997  63.245  0.00  0.00    -0.083 A 
ATOM     66  H50 non d ame      -8.205   5.728  62.021  0.00  0.00     0.083 H 
ATOM     67  C33 non d ame      -5.913   5.908  64.524  0.00  0.00    -0.082 A 
ATOM     68  H51 non d ame      -5.813   6.327  62.419  0.00  0.00     0.083 H 
ATOM     69  C34 non d ame      -6.708   5.489  65.590  0.00  0.00    -0.075 A 
ATOM     70  H52 non d ame      -4.868   6.168  64.694  0.00  0.00     0.083 H 
ATOM     71  H53 non d ame      -6.283   5.423  66.593  0.00  0.00     0.084 H 
ENDBRANCH  58  61
ENDBRANCH  57  58
ENDBRANCH  55  57
ENDBRANCH  52  55
ENDBRANCH  49  52
ENDBRANCH  47  49
BRANCH  47  72
ATOM     72  C24 non d ame     -10.123   8.827  71.611  0.00  0.00    -0.039 C 
ATOM     73  H35 non d ame     -10.099   8.084  72.408  0.00  0.00     0.036 H 
ATOM     74  H36 non d ame      -9.767   9.840  71.799  0.00  0.00     0.036 H 
BRANCH  72  75
ATOM     75  C25 non d ame     -11.645   8.946  71.123  0.00  0.00    -0.001 C 
ATOM     76  C26 non d ame     -12.098  10.526  71.077  0.00  0.00    -0.035 C 
ATOM     77  C27 non d ame     -13.256  10.669  71.764  0.00  0.00     0.085 C 
ATOM     78  H38 non d ame     -11.390  11.133  71.642  0.00  0.00     0.036 H 
ATOM     79  H39 non d ame     -12.368  10.809  70.059  0.00  0.00     0.036 H 
ATOM     80  N5  non d ame     -13.464   9.396  72.548  0.00  0.00    -0.049 N 
ATOM     81  H40 non d ame     -13.084  11.490  72.459  0.00  0.00     0.075 H 
ATOM     82  H41 non d ame     -14.035  10.750  71.006  0.00  0.00     0.075 H 
ATOM     83  C28 non d ame     -12.442   8.315  71.920  0.00  0.00     0.193 C 
ATOM     84  H42 non d ame     -13.180   9.594  73.496  0.00  0.00     0.280 HD
ATOM     85  H43 non d ame     -14.408   9.093  72.357  0.00  0.00     0.280 HD
ATOM     86  H44 non d ame     -12.805   7.529  71.257  0.00  0.00     0.129 H 
ATOM     87  H37 non d ame     -11.841   8.348  70.233  0.00  0.00     0.046 H 
BRANCH  83  88
ATOM     88  O6  non d ame     -11.738   7.640  72.963  0.00  0.00    -0.369 OA
ATOM     89  H45 non d ame     -12.091   7.909  73.814  0.00  0.00     0.212 HD
ENDBRANCH  83  88
ENDBRANCH  72  75
ENDBRANCH  47  72
ENDBRANCH  45  47
ENDBRANCH   1  43
BRANCH   1  90
ATOM     90  C16 non d ame      -9.090   8.519  65.623  0.00  0.00    -0.035 C 
ATOM     91  H21 non d ame      -8.313   7.985  66.169  0.00  0.00     0.037 H 
ATOM     92  H22 non d ame      -9.793   7.970  64.997  0.00  0.00     0.037 H 
BRANCH  90  93
ATOM     93  C17 non d ame      -8.355   9.527  64.683  0.00  0.00    -0.059 C 
ATOM     94  H23 non d ame      -8.750  10.521  64.891  0.00  0.00     0.038 H 
BRANCH  93  95
ATOM     95  C18 non d ame      -6.816   9.561  64.943  0.00  0.00    -0.073 C 
ATOM     96  H24 non d ame      -6.513  10.577  65.199  0.00  0.00     0.028 H 
ATOM     97  H25 non d ame      -6.572   8.891  65.767  0.00  0.00     0.028 H 
ATOM     98  H26 non d ame      -6.288   9.239  64.045  0.00  0.00     0.028 H 
ENDBRANCH  93  95
BRANCH  93  99
ATOM     99  C19 non d ame      -8.654   9.220  63.213  0.00  0.00    -0.073 C 
ATOM    100  H27 non d ame      -8.399  10.086  62.602  0.00  0.00     0.028 H 
ATOM    101  H28 non d ame      -8.061   8.363  62.893  0.00  0.00     0.028 H 
ATOM    102  H29 non d ame      -9.713   8.993  63.097  0.00  0.00     0.028 H 
ENDBRANCH  93  99
ENDBRANCH  90  93
ENDBRANCH   1  90
TORSDOF 26
ENDMDL
MODEL 5
REMARK VINA RESULT:      -6.9      3.755      9.631
REMARK  26 active torsions:
REMARK  status: ('A' for Active; 'I' for Inactive)
REMARK    1  A    between atoms: C2_2  and  C3_3 
REMARK    2  A    between atoms: C4_6  and  C5_7 
REMARK       I    between atoms: C5_7  and  N2_9 
REMARK    3  A    between atoms: N2_9  and  C6_10 
REMARK    4  A    between atoms: C6_10  and  C7_11 
REMARK    5  A    between atoms: C6_10  and  C8_13 
REMARK       I    between atoms: C7_11  and  N3_14 
REMARK    6  A    between atoms: N3_14  and  C9_15 
REMARK    7  A    between atoms: C9_15  and  C10_16 
REMARK    8  A    between atoms: C9_15  and  C11_18 
REMARK       I    between atoms: C10_16  and  N4_21 
REMARK    9  A    between atoms: C11_18  and  C12_19 
REMARK   10  A    between atoms: C11_18  and  C13_20 
REMARK   11  A    between atoms: N4_21  and  C14_22 
REMARK   12  A    between atoms: C14_22  and  C15_23 
REMARK   13  A    between atoms: C14_22  and  C16_25 
REMARK       I    between atoms: C15_23  and  N6_40 
REMARK   14  A    between atoms: C16_25  and  C17_26 
REMARK   15  A    between atoms: C17_26  and  C18_27 
REMARK   16  A    between atoms: C17_26  and  C19_28 
REMARK   17  A    between atoms: C20_29  and  C21_30 
REMARK   18  A    between atoms: C20_29  and  C24_33 
REMARK   19  A    between atoms: C20_29  and  N6_40 
REMARK   20  A    between atoms: C21_30  and  C22_31 
REMARK   21  A    between atoms: C22_31  and  C23_32 
REMARK   22  A    between atoms: C23_32  and  O8_43 
REMARK   23  A    between atoms: C24_33  and  C25_34 
REMARK   24  A    between atoms: C28_38  and  O6_39 
REMARK   25  A    between atoms: C29_42  and  O8_43 
REMARK   26  A    between atoms: C29_42  and  C35_49 
ROOT
ATOM      1  C14 non d ame      -9.652  10.231  69.492  0.00  0.00     0.089 C 
ATOM      2  H20 non d ame      -9.007  11.060  69.783  0.00  0.00     0.087 H 
ENDROOT
BRANCH   1   3
ATOM      3  N4  non d ame      -9.203   9.761  68.190  0.00  0.00    -0.346 N 
ATOM      4  C10 non d ame      -7.964  10.343  67.556  0.00  0.00     0.241 C 
ATOM      5  O4  non d ame      -7.347  11.190  68.113  0.00  0.00    -0.271 OA
ATOM      6  H19 non d ame      -9.745   9.042  67.732  0.00  0.00     0.163 HD
BRANCH   4   7
ATOM      7  C9  non d ame      -7.511   9.842  66.210  0.00  0.00     0.092 C 
ATOM      8  H11 non d ame      -7.911   8.841  66.047  0.00  0.00     0.088 H 
BRANCH   7   9
ATOM      9  N3  non d ame      -8.059  10.703  65.158  0.00  0.00    -0.346 N 
ATOM     10  C7  non d ame      -9.460  10.631  64.823  0.00  0.00     0.240 C 
ATOM     11  O3  non d ame     -10.161   9.885  65.390  0.00  0.00    -0.271 OA
ATOM     12  H10 non d ame      -7.466  11.350  64.659  0.00  0.00     0.163 HD
BRANCH  10  13
ATOM     13  C6  non d ame     -10.035  11.548  63.700  0.00  0.00     0.086 C 
ATOM     14  H6  non d ame     -11.097  11.379  63.520  0.00  0.00     0.086 H 
BRANCH  13  15
ATOM     15  N2  non d ame      -9.897  12.936  64.108  0.00  0.00    -0.343 N 
ATOM     16  C5  non d ame     -11.097  13.759  64.280  0.00  0.00     0.273 C 
ATOM     17  O2  non d ame     -12.166  13.296  64.086  0.00  0.00    -0.266 OA
ATOM     18  H5  non d ame      -8.980  13.325  64.269  0.00  0.00     0.163 HD
BRANCH  16  19
ATOM     19  C4  non d ame     -10.966  15.228  64.713  0.00  0.00     0.154 A 
ATOM     20  C1  non d ame     -10.307  15.730  65.880  0.00  0.00    -0.017 A 
ATOM     21  C2  non d ame     -10.471  17.131  65.816  0.00  0.00     0.077 A 
ATOM     22  H1  non d ame      -9.789  15.164  66.655  0.00  0.00     0.091 H 
ATOM     23  O1  non d ame     -11.145  17.394  64.734  0.00  0.00    -0.218 OA
ATOM     24  N1  non d ame     -11.446  16.298  64.074  0.00  0.00    -0.123 NA
BRANCH  21  25
ATOM     25  C3  non d ame      -9.952  18.147  66.825  0.00  0.00    -0.029 C 
ATOM     26  H2  non d ame      -9.068  17.746  67.323  0.00  0.00     0.036 H 
ATOM     27  H3  non d ame      -9.691  19.070  66.308  0.00  0.00     0.036 H 
ATOM     28  H4  non d ame     -10.725  18.352  67.566  0.00  0.00     0.036 H 
ENDBRANCH  21  25
ENDBRANCH  16  19
ENDBRANCH  13  15
BRANCH  13  29
ATOM     29  C8  non d ame      -9.281  11.310  62.417  0.00  0.00    -0.049 C 
ATOM     30  H7  non d ame      -9.973  10.979  61.643  0.00  0.00     0.030 H 
ATOM     31  H8  non d ame      -8.800  12.237  62.101  0.00  0.00     0.030 H 
ATOM     32  H9  non d ame      -8.523  10.544  62.577  0.00  0.00     0.030 H 
ENDBRANCH  13  29
ENDBRANCH  10  13
ENDBRANCH   7   9
BRANCH   7  33
ATOM     33  C11 non d ame      -5.956   9.869  66.143  0.00  0.00    -0.033 C 
ATOM     34  H12 non d ame      -5.618  10.734  66.713  0.00  0.00     0.042 H 
BRANCH  33  35
ATOM     35  C12 non d ame      -5.336   8.599  66.806  0.00  0.00    -0.071 C 
ATOM     36  H13 non d ame      -5.740   8.481  67.811  0.00  0.00     0.028 H 
ATOM     37  H14 non d ame      -5.582   7.721  66.209  0.00  0.00     0.028 H 
ATOM     38  H15 non d ame      -4.253   8.710  66.858  0.00  0.00     0.028 H 
ENDBRANCH  33  35
BRANCH  33  39
ATOM     39  C13 non d ame      -5.463  10.037  64.670  0.00  0.00    -0.071 C 
ATOM     40  H16 non d ame      -6.320  10.020  63.996  0.00  0.00     0.028 H 
ATOM     41  H17 non d ame      -4.939  10.988  64.568  0.00  0.00     0.028 H 
ATOM     42  H18 non d ame      -4.787   9.220  64.419  0.00  0.00     0.028 H 
ENDBRANCH  33  39
ENDBRANCH   7  33
ENDBRANCH   4   7
ENDBRANCH   1   3
BRANCH   1  43
ATOM     43  C15 non d ame      -9.577   9.047  70.499  0.00  0.00     0.240 C 
ATOM     44  O5  non d ame      -8.911   9.146  71.479  0.00  0.00    -0.271 OA
ATOM     45  N6  non d ame     -10.341   7.793  70.245  0.00  0.00    -0.355 N 
ATOM     46  H46 non d ame     -10.913   7.699  69.418  0.00  0.00     0.162 HD
BRANCH  45  47
ATOM     47  C20 non d ame     -10.260   6.677  71.212  0.00  0.00     0.013 C 
ATOM     48  H30 non d ame      -9.331   6.784  71.771  0.00  0.00     0.072 H 
BRANCH  47  49
ATOM     49  C21 non d ame     -10.262   5.364  70.462  0.00  0.00    -0.038 C 
ATOM     50  H31 non d ame      -9.238   4.994  70.511  0.00  0.00     0.036 H 
ATOM     51  H32 non d ame     -11.075   4.779  70.895  0.00  0.00     0.036 H 
BRANCH  49  52
ATOM     52  C22 non d ame     -10.596   5.530  68.964  0.00  0.00     0.018 C 
ATOM     53  H33 non d ame     -11.505   4.950  68.797  0.00  0.00     0.048 H 
ATOM     54  H34 non d ame     -10.593   6.604  68.778  0.00  0.00     0.048 H 
BRANCH  52  55
ATOM     55  C23 non d ame      -9.524   4.926  68.014  0.00  0.00     0.259 C 
ATOM     56  O7  non d ame      -9.630   3.812  67.617  0.00  0.00    -0.265 OA
BRANCH  55  57
ATOM     57  O8  non d ame      -8.405   5.717  67.633  0.00  0.00    -0.317 OA
BRANCH  57  58
ATOM     58  C29 non d ame      -7.240   4.957  67.299  0.00  0.00     0.052 C 
ATOM     59  H47 non d ame      -6.480   5.247  68.024  0.00  0.00     0.082 H 
ATOM     60  H48 non d ame      -7.571   3.920  67.242  0.00  0.00     0.082 H 
BRANCH  58  61
ATOM     61  C35 non d ame      -6.768   5.399  65.888  0.00  0.00    -0.034 A 
ATOM     62  C30 non d ame      -5.477   5.105  65.462  0.00  0.00    -0.075 A 
ATOM     63  C31 non d ame      -5.053   5.502  64.195  0.00  0.00    -0.082 A 
ATOM     64  H49 non d ame      -4.798   4.564  66.120  0.00  0.00     0.084 H 
ATOM     65  C32 non d ame      -5.925   6.198  63.354  0.00  0.00    -0.083 A 
ATOM     66  H50 non d ame      -4.041   5.269  63.863  0.00  0.00     0.083 H 
ATOM     67  C33 non d ame      -7.212   6.493  63.784  0.00  0.00    -0.082 A 
ATOM     68  H51 non d ame      -5.601   6.513  62.361  0.00  0.00     0.083 H 
ATOM     69  C34 non d ame      -7.640   6.095  65.049  0.00  0.00    -0.075 A 
ATOM     70  H52 non d ame      -7.889   7.038  63.126  0.00  0.00     0.083 H 
ATOM     71  H53 non d ame      -8.653   6.329  65.380  0.00  0.00     0.084 H 
ENDBRANCH  58  61
ENDBRANCH  57  58
ENDBRANCH  55  57
ENDBRANCH  52  55
ENDBRANCH  49  52
ENDBRANCH  47  49
BRANCH  47  72
ATOM     72  C24 non d ame     -11.457   6.726  72.158  0.00  0.00    -0.039 C 
ATOM     73  H35 non d ame     -11.737   5.686  72.328  0.00  0.00     0.036 H 
ATOM     74  H36 non d ame     -11.141   7.349  72.995  0.00  0.00     0.036 H 
BRANCH  72  75
ATOM     75  C25 non d ame     -12.718   7.448  71.482  0.00  0.00    -0.001 C 
ATOM     76  C26 non d ame     -12.854   8.985  72.050  0.00  0.00    -0.035 C 
ATOM     77  C27 non d ame     -14.122   9.180  72.484  0.00  0.00     0.085 C 
ATOM     78  H38 non d ame     -12.255   9.104  72.953  0.00  0.00     0.036 H 
ATOM     79  H39 non d ame     -12.753   9.698  71.231  0.00  0.00     0.036 H 
ATOM     80  N5  non d ame     -14.774   7.821  72.566  0.00  0.00    -0.049 N 
ATOM     81  H40 non d ame     -14.027   9.589  73.490  0.00  0.00     0.075 H 
ATOM     82  H41 non d ame     -14.612   9.760  71.703  0.00  0.00     0.075 H 
ATOM     83  C28 non d ame     -13.814   6.817  71.743  0.00  0.00     0.193 C 
ATOM     84  H42 non d ame     -14.757   7.553  73.541  0.00  0.00     0.280 HD
ATOM     85  H43 non d ame     -15.655   7.895  72.079  0.00  0.00     0.280 HD
ATOM     86  H44 non d ame     -14.092   6.480  70.744  0.00  0.00     0.129 H 
ATOM     87  H37 non d ame     -12.738   7.316  70.400  0.00  0.00     0.046 H 
BRANCH  83  88
ATOM     88  O6  non d ame     -13.584   5.626  72.497  0.00  0.00    -0.369 OA
ATOM     89  H45 non d ame     -14.402   5.129  72.567  0.00  0.00     0.212 HD
ENDBRANCH  83  88
ENDBRANCH  72  75
ENDBRANCH  47  72
ENDBRANCH  45  47
ENDBRANCH   1  43
BRANCH   1  90
ATOM     90  C16 non d ame     -11.090  10.714  69.378  0.00  0.00    -0.035 C 
ATOM     91  H21 non d ame     -11.490  10.221  68.492  0.00  0.00     0.037 H 
ATOM     92  H22 non d ame     -11.535  10.526  70.354  0.00  0.00     0.037 H 
BRANCH  90  93
ATOM     93  C17 non d ame     -11.216  12.249  69.123  0.00  0.00    -0.059 C 
ATOM     94  H23 non d ame     -10.224  12.686  69.237  0.00  0.00     0.038 H 
BRANCH  93  95
ATOM     95  C18 non d ame     -11.715  12.569  67.678  0.00  0.00    -0.073 C 
ATOM     96  H24 non d ame     -11.381  11.785  66.997  0.00  0.00     0.028 H 
ATOM     97  H25 non d ame     -12.804  12.615  67.671  0.00  0.00     0.028 H 
ATOM     98  H26 non d ame     -11.309  13.528  67.356  0.00  0.00     0.028 H 
ENDBRANCH  93  95
BRANCH  93  99
ATOM     99  C19 non d ame     -12.122  12.904  70.169  0.00  0.00    -0.073 C 
ATOM    100  H27 non d ame     -13.160  12.833  69.846  0.00  0.00     0.028 H 
ATOM    101  H28 non d ame     -12.002  12.393  71.125  0.00  0.00     0.028 H 
ATOM    102  H29 non d ame     -11.848  13.953  70.281  0.00  0.00     0.028 H 
ENDBRANCH  93  99
ENDBRANCH  90  93
ENDBRANCH   1  90
TORSDOF 26
ENDMDL
MODEL 6
REMARK VINA RESULT:      -6.9      3.212      8.753
REMARK  26 active torsions:
REMARK  status: ('A' for Active; 'I' for Inactive)
REMARK    1  A    between atoms: C2_2  and  C3_3 
REMARK    2  A    between atoms: C4_6  and  C5_7 
REMARK       I    between atoms: C5_7  and  N2_9 
REMARK    3  A    between atoms: N2_9  and  C6_10 
REMARK    4  A    between atoms: C6_10  and  C7_11 
REMARK    5  A    between atoms: C6_10  and  C8_13 
REMARK       I    between atoms: C7_11  and  N3_14 
REMARK    6  A    between atoms: N3_14  and  C9_15 
REMARK    7  A    between atoms: C9_15  and  C10_16 
REMARK    8  A    between atoms: C9_15  and  C11_18 
REMARK       I    between atoms: C10_16  and  N4_21 
REMARK    9  A    between atoms: C11_18  and  C12_19 
REMARK   10  A    between atoms: C11_18  and  C13_20 
REMARK   11  A    between atoms: N4_21  and  C14_22 
REMARK   12  A    between atoms: C14_22  and  C15_23 
REMARK   13  A    between atoms: C14_22  and  C16_25 
REMARK       I    between atoms: C15_23  and  N6_40 
REMARK   14  A    between atoms: C16_25  and  C17_26 
REMARK   15  A    between atoms: C17_26  and  C18_27 
REMARK   16  A    between atoms: C17_26  and  C19_28 
REMARK   17  A    between atoms: C20_29  and  C21_30 
REMARK   18  A    between atoms: C20_29  and  C24_33 
REMARK   19  A    between atoms: C20_29  and  N6_40 
REMARK   20  A    between atoms: C21_30  and  C22_31 
REMARK   21  A    between atoms: C22_31  and  C23_32 
REMARK   22  A    between atoms: C23_32  and  O8_43 
REMARK   23  A    between atoms: C24_33  and  C25_34 
REMARK   24  A    between atoms: C28_38  and  O6_39 
REMARK   25  A    between atoms: C29_42  and  O8_43 
REMARK   26  A    between atoms: C29_42  and  C35_49 
ROOT
ATOM      1  C14 non d ame      -9.090   7.213  66.828  0.00  0.00     0.089 C 
ATOM      2  H20 non d ame      -9.619   6.706  66.022  0.00  0.00     0.087 H 
ENDROOT
BRANCH   1   3
ATOM      3  N4  non d ame      -8.674   8.515  66.330  0.00  0.00    -0.346 N 
ATOM      4  C10 non d ame      -8.159   8.662  64.920  0.00  0.00     0.241 C 
ATOM      5  O4  non d ame      -8.087   7.716  64.206  0.00  0.00    -0.271 OA
ATOM      6  H19 non d ame      -8.740   9.307  66.955  0.00  0.00     0.163 HD
BRANCH   4   7
ATOM      7  C9  non d ame      -7.737  10.018  64.419  0.00  0.00     0.092 C 
ATOM      8  H11 non d ame      -7.724  10.009  63.329  0.00  0.00     0.088 H 
BRANCH   7   9
ATOM      9  N3  non d ame      -8.724  11.020  64.831  0.00  0.00    -0.346 N 
ATOM     10  C7  non d ame      -9.884  11.271  64.011  0.00  0.00     0.240 C 
ATOM     11  O3  non d ame     -10.038  10.675  63.015  0.00  0.00    -0.271 OA
ATOM     12  H10 non d ame      -8.603  11.543  65.686  0.00  0.00     0.163 HD
BRANCH  10  13
ATOM     13  C6  non d ame     -10.928  12.341  64.454  0.00  0.00     0.086 C 
ATOM     14  H6  non d ame     -11.470  12.056  65.356  0.00  0.00     0.086 H 
BRANCH  13  15
ATOM     15  N2  non d ame     -10.232  13.579  64.762  0.00  0.00    -0.343 N 
ATOM     16  C5  non d ame     -10.923  14.626  65.519  0.00  0.00     0.273 C 
ATOM     17  O2  non d ame     -12.039  14.463  65.872  0.00  0.00    -0.266 OA
ATOM     18  H5  non d ame      -9.279  13.712  64.455  0.00  0.00     0.163 HD
BRANCH  16  19
ATOM     19  C4  non d ame     -10.199  15.939  65.854  0.00  0.00     0.154 A 
ATOM     20  C1  non d ame      -9.165  16.133  66.825  0.00  0.00    -0.017 A 
ATOM     21  C2  non d ame      -8.842  17.506  66.744  0.00  0.00     0.077 A 
ATOM     22  H1  non d ame      -8.718  15.391  67.488  0.00  0.00     0.091 H 
ATOM     23  O1  non d ame      -9.605  18.030  65.828  0.00  0.00    -0.218 OA
ATOM     24  N1  non d ame     -10.406  17.135  65.296  0.00  0.00    -0.123 NA
BRANCH  21  25
ATOM     25  C3  non d ame      -7.794  18.236  67.571  0.00  0.00    -0.029 C 
ATOM     26  H2  non d ame      -7.270  17.522  68.208  0.00  0.00     0.036 H 
ATOM     27  H3  non d ame      -7.079  18.721  66.906  0.00  0.00     0.036 H 
ATOM     28  H4  non d ame      -8.279  18.989  68.193  0.00  0.00     0.036 H 
ENDBRANCH  21  25
ENDBRANCH  16  19
ENDBRANCH  13  15
BRANCH  13  29
ATOM     29  C8  non d ame     -11.920  12.571  63.342  0.00  0.00    -0.049 C 
ATOM     30  H7  non d ame     -12.932  12.536  63.744  0.00  0.00     0.030 H 
ATOM     31  H8  non d ame     -11.741  13.548  62.892  0.00  0.00     0.030 H 
ATOM     32  H9  non d ame     -11.804  11.796  62.586  0.00  0.00     0.030 H 
ENDBRANCH  13  29
ENDBRANCH  10  13
ENDBRANCH   7   9
BRANCH   7  33
ATOM     33  C11 non d ame      -6.348  10.384  65.018  0.00  0.00    -0.033 C 
ATOM     34  H12 non d ame      -5.891  11.123  64.360  0.00  0.00     0.042 H 
BRANCH  33  35
ATOM     35  C12 non d ame      -6.491  11.035  66.429  0.00  0.00    -0.071 C 
ATOM     36  H13 non d ame      -7.123  11.921  66.357  0.00  0.00     0.028 H 
ATOM     37  H14 non d ame      -6.944  10.320  67.115  0.00  0.00     0.028 H 
ATOM     38  H15 non d ame      -5.506  11.319  66.799  0.00  0.00     0.028 H 
ENDBRANCH  33  35
BRANCH  33  39
ATOM     39  C13 non d ame      -5.412   9.134  65.064  0.00  0.00    -0.071 C 
ATOM     40  H16 non d ame      -6.016   8.230  65.133  0.00  0.00     0.028 H 
ATOM     41  H17 non d ame      -4.806   9.099  64.158  0.00  0.00     0.028 H 
ATOM     42  H18 non d ame      -4.760   9.201  65.935  0.00  0.00     0.028 H 
ENDBRANCH  33  39
ENDBRANCH   7  33
ENDBRANCH   4   7
ENDBRANCH   1   3
BRANCH   1  43
ATOM     43  C15 non d ame      -9.991   7.426  68.079  0.00  0.00     0.240 C 
ATOM     44  O5  non d ame     -10.911   6.699  68.276  0.00  0.00    -0.271 OA
ATOM     45  N6  non d ame      -9.702   8.532  69.036  0.00  0.00    -0.355 N 
ATOM     46  H46 non d ame      -8.922   9.154  68.881  0.00  0.00     0.162 HD
BRANCH  45  47
ATOM     47  C20 non d ame     -10.567   8.721  70.220  0.00  0.00     0.013 C 
ATOM     48  H30 non d ame     -11.392   8.012  70.149  0.00  0.00     0.072 H 
BRANCH  47  49
ATOM     49  C21 non d ame     -11.102  10.135  70.229  0.00  0.00    -0.038 C 
ATOM     50  H31 non d ame     -11.964  10.120  70.896  0.00  0.00     0.036 H 
ATOM     51  H32 non d ame     -10.246  10.771  70.458  0.00  0.00     0.036 H 
BRANCH  49  52
ATOM     52  C22 non d ame     -11.625  10.587  68.848  0.00  0.00     0.018 C 
ATOM     53  H33 non d ame     -11.164   9.915  68.123  0.00  0.00     0.048 H 
ATOM     54  H34 non d ame     -12.710  10.627  68.942  0.00  0.00     0.048 H 
BRANCH  52  55
ATOM     55  C23 non d ame     -11.176  12.020  68.448  0.00  0.00     0.259 C 
ATOM     56  O7  non d ame     -10.157  12.189  67.860  0.00  0.00    -0.265 OA
BRANCH  55  57
ATOM     57  O8  non d ame     -11.989  13.131  68.804  0.00  0.00    -0.317 OA
BRANCH  57  58
ATOM     58  C29 non d ame     -11.264  14.230  69.361  0.00  0.00     0.052 C 
ATOM     59  H47 non d ame     -10.257  13.857  69.545  0.00  0.00     0.082 H 
ATOM     60  H48 non d ame     -11.419  15.064  68.676  0.00  0.00     0.082 H 
BRANCH  58  61
ATOM     61  C35 non d ame     -11.912  14.589  70.725  0.00  0.00    -0.034 A 
ATOM     62  C30 non d ame     -11.617  15.802  71.338  0.00  0.00    -0.075 A 
ATOM     63  C31 non d ame     -12.199  16.125  72.563  0.00  0.00    -0.082 A 
ATOM     64  H49 non d ame     -10.931  16.500  70.859  0.00  0.00     0.084 H 
ATOM     65  C32 non d ame     -13.077  15.227  73.176  0.00  0.00    -0.083 A 
ATOM     66  H50 non d ame     -11.968  17.077  73.040  0.00  0.00     0.083 H 
ATOM     67  C33 non d ame     -13.366  14.016  72.562  0.00  0.00    -0.082 A 
ATOM     68  H51 non d ame     -13.537  15.471  74.134  0.00  0.00     0.083 H 
ATOM     69  C34 non d ame     -12.788  13.691  71.337  0.00  0.00    -0.075 A 
ATOM     70  H52 non d ame     -14.050  13.317  73.044  0.00  0.00     0.083 H 
ATOM     71  H53 non d ame     -13.021  12.737  70.860  0.00  0.00     0.084 H 
ENDBRANCH  58  61
ENDBRANCH  57  58
ENDBRANCH  55  57
ENDBRANCH  52  55
ENDBRANCH  49  52
ENDBRANCH  47  49
BRANCH  47  72
ATOM     72  C24 non d ame      -9.761   8.472  71.493  0.00  0.00    -0.039 C 
ATOM     73  H35 non d ame      -8.730   8.713  71.235  0.00  0.00     0.036 H 
ATOM     74  H36 non d ame     -10.273   9.034  72.275  0.00  0.00     0.036 H 
BRANCH  72  75
ATOM     75  C25 non d ame      -9.793   6.929  71.922  0.00  0.00    -0.001 C 
ATOM     76  C26 non d ame     -11.278   6.292  71.617  0.00  0.00    -0.035 C 
ATOM     77  C27 non d ame     -11.728   5.677  72.737  0.00  0.00     0.085 C 
ATOM     78  H38 non d ame     -12.001   7.092  71.458  0.00  0.00     0.036 H 
ATOM     79  H39 non d ame     -11.196   5.480  70.895  0.00  0.00     0.036 H 
ATOM     80  N5  non d ame     -10.833   6.114  73.871  0.00  0.00    -0.049 N 
ATOM     81  H40 non d ame     -12.731   6.070  72.903  0.00  0.00     0.075 H 
ATOM     82  H41 non d ame     -11.582   4.611  72.561  0.00  0.00     0.075 H 
ATOM     83  C28 non d ame      -9.538   6.789  73.181  0.00  0.00     0.193 C 
ATOM     84  H42 non d ame     -11.338   6.830  74.374  0.00  0.00     0.280 HD
ATOM     85  H43 non d ame     -10.542   5.273  74.347  0.00  0.00     0.280 HD
ATOM     86  H44 non d ame      -8.592   6.249  73.134  0.00  0.00     0.129 H 
ATOM     87  H37 non d ame      -8.931   6.378  71.547  0.00  0.00     0.046 H 
BRANCH  83  88
ATOM     88  O6  non d ame      -9.237   8.034  73.812  0.00  0.00    -0.369 OA
ATOM     89  H45 non d ame      -8.520   8.465  73.343  0.00  0.00     0.212 HD
ENDBRANCH  83  88
ENDBRANCH  72  75
ENDBRANCH  47  72
ENDBRANCH  45  47
ENDBRANCH   1  43
BRANCH   1  90
ATOM     90  C16 non d ame      -7.857   6.412  67.218  0.00  0.00    -0.035 C 
ATOM     91  H21 non d ame      -7.054   6.796  66.588  0.00  0.00     0.037 H 
ATOM     92  H22 non d ame      -7.788   6.498  68.301  0.00  0.00     0.037 H 
BRANCH  90  93
ATOM     93  C17 non d ame      -7.975   4.888  66.902  0.00  0.00    -0.059 C 
ATOM     94  H23 non d ame      -8.370   4.395  67.790  0.00  0.00     0.038 H 
BRANCH  93  95
ATOM     95  C18 non d ame      -8.959   4.603  65.723  0.00  0.00    -0.073 C 
ATOM     96  H24 non d ame      -9.412   5.539  65.394  0.00  0.00     0.028 H 
ATOM     97  H25 non d ame      -8.412   4.154  64.893  0.00  0.00     0.028 H 
ATOM     98  H26 non d ame      -9.738   3.919  66.056  0.00  0.00     0.028 H 
ENDBRANCH  93  95
BRANCH  93  99
ATOM     99  C19 non d ame      -6.598   4.280  66.621  0.00  0.00    -0.073 C 
ATOM    100  H27 non d ame      -5.859   5.077  66.542  0.00  0.00     0.028 H 
ATOM    101  H28 non d ame      -6.323   3.610  67.436  0.00  0.00     0.028 H 
ATOM    102  H29 non d ame      -6.631   3.721  65.687  0.00  0.00     0.028 H 
ENDBRANCH  93  99
ENDBRANCH  90  93
ENDBRANCH   1  90
TORSDOF 26
ENDMDL
MODEL 7
REMARK VINA RESULT:      -6.9      3.487      6.617
REMARK  26 active torsions:
REMARK  status: ('A' for Active; 'I' for Inactive)
REMARK    1  A    between atoms: C2_2  and  C3_3 
REMARK    2  A    between atoms: C4_6  and  C5_7 
REMARK       I    between atoms: C5_7  and  N2_9 
REMARK    3  A    between atoms: N2_9  and  C6_10 
REMARK    4  A    between atoms: C6_10  and  C7_11 
REMARK    5  A    between atoms: C6_10  and  C8_13 
REMARK       I    between atoms: C7_11  and  N3_14 
REMARK    6  A    between atoms: N3_14  and  C9_15 
REMARK    7  A    between atoms: C9_15  and  C10_16 
REMARK    8  A    between atoms: C9_15  and  C11_18 
REMARK       I    between atoms: C10_16  and  N4_21 
REMARK    9  A    between atoms: C11_18  and  C12_19 
REMARK   10  A    between atoms: C11_18  and  C13_20 
REMARK   11  A    between atoms: N4_21  and  C14_22 
REMARK   12  A    between atoms: C14_22  and  C15_23 
REMARK   13  A    between atoms: C14_22  and  C16_25 
REMARK       I    between atoms: C15_23  and  N6_40 
REMARK   14  A    between atoms: C16_25  and  C17_26 
REMARK   15  A    between atoms: C17_26  and  C18_27 
REMARK   16  A    between atoms: C17_26  and  C19_28 
REMARK   17  A    between atoms: C20_29  and  C21_30 
REMARK   18  A    between atoms: C20_29  and  C24_33 
REMARK   19  A    between atoms: C20_29  and  N6_40 
REMARK   20  A    between atoms: C21_30  and  C22_31 
REMARK   21  A    between atoms: C22_31  and  C23_32 
REMARK   22  A    between atoms: C23_32  and  O8_43 
REMARK   23  A    between atoms: C24_33  and  C25_34 
REMARK   24  A    between atoms: C28_38  and  O6_39 
REMARK   25  A    between atoms: C29_42  and  O8_43 
REMARK   26  A    between atoms: C29_42  and  C35_49 
ROOT
ATOM      1  C14 non d ame     -10.490  10.400  67.756  0.00  0.00     0.089 C 
ATOM      2  H20 non d ame      -9.462  10.523  68.098  0.00  0.00     0.087 H 
ENDROOT
BRANCH   1   3
ATOM      3  N4  non d ame     -11.079   9.313  68.523  0.00  0.00    -0.346 N 
ATOM      4  C10 non d ame     -10.688   9.097  69.964  0.00  0.00     0.241 C 
ATOM      5  O4  non d ame      -9.893   9.810  70.483  0.00  0.00    -0.271 OA
ATOM      6  H19 non d ame     -11.752   8.716  68.062  0.00  0.00     0.163 HD
BRANCH   4   7
ATOM      7  C9  non d ame     -11.312   7.971  70.744  0.00  0.00     0.092 C 
ATOM      8  H11 non d ame     -12.269   7.709  70.293  0.00  0.00     0.088 H 
BRANCH   7   9
ATOM      9  N3  non d ame     -10.455   6.784  70.661  0.00  0.00    -0.346 N 
ATOM     10  C7  non d ame     -10.665   5.815  69.614  0.00  0.00     0.240 C 
ATOM     11  O3  non d ame     -11.521   5.973  68.830  0.00  0.00    -0.271 OA
ATOM     12  H10 non d ame      -9.715   6.633  71.330  0.00  0.00     0.163 HD
BRANCH  10  13
ATOM     13  C6  non d ame      -9.753   4.552  69.532  0.00  0.00     0.086 C 
ATOM     14  H6  non d ame     -10.307   3.622  69.656  0.00  0.00     0.086 H 
BRANCH  13  15
ATOM     15  N2  non d ame      -9.139   4.499  68.216  0.00  0.00    -0.343 N 
ATOM     16  C5  non d ame      -8.388   5.657  67.723  0.00  0.00     0.273 C 
ATOM     17  O2  non d ame      -8.287   6.626  68.392  0.00  0.00    -0.266 OA
ATOM     18  H5  non d ame      -9.232   3.669  67.650  0.00  0.00     0.163 HD
BRANCH  16  19
ATOM     19  C4  non d ame      -7.732   5.614  66.334  0.00  0.00     0.154 A 
ATOM     20  C1  non d ame      -8.382   5.755  65.066  0.00  0.00    -0.017 A 
ATOM     21  C2  non d ame      -7.346   5.641  64.112  0.00  0.00     0.077 A 
ATOM     22  H1  non d ame      -9.442   5.914  64.869  0.00  0.00     0.091 H 
ATOM     23  O1  non d ame      -6.236   5.458  64.766  0.00  0.00    -0.218 OA
ATOM     24  N1  non d ame      -6.436   5.438  66.064  0.00  0.00    -0.123 NA
BRANCH  21  25
ATOM     25  C3  non d ame      -7.501   5.720  62.600  0.00  0.00    -0.029 C 
ATOM     26  H2  non d ame      -6.539   5.962  62.147  0.00  0.00     0.036 H 
ATOM     27  H3  non d ame      -7.850   4.760  62.220  0.00  0.00     0.036 H 
ATOM     28  H4  non d ame      -8.226   6.494  62.348  0.00  0.00     0.036 H 
ENDBRANCH  21  25
ENDBRANCH  16  19
ENDBRANCH  13  15
BRANCH  13  29
ATOM     29  C8  non d ame      -8.687   4.629  70.595  0.00  0.00    -0.049 C 
ATOM     30  H7  non d ame      -8.615   3.671  71.109  0.00  0.00     0.030 H 
ATOM     31  H8  non d ame      -7.728   4.865  70.131  0.00  0.00     0.030 H 
ATOM     32  H9  non d ame      -8.944   5.407  71.313  0.00  0.00     0.030 H 
ENDBRANCH  13  29
ENDBRANCH  10  13
ENDBRANCH   7   9
BRANCH   7  33
ATOM     33  C11 non d ame     -11.463   8.394  72.235  0.00  0.00    -0.033 C 
ATOM     34  H12 non d ame     -10.860   9.289  72.385  0.00  0.00     0.042 H 
BRANCH  33  35
ATOM     35  C12 non d ame     -12.941   8.763  72.573  0.00  0.00    -0.071 C 
ATOM     36  H13 non d ame     -13.193   8.382  73.563  0.00  0.00     0.028 H 
ATOM     37  H14 non d ame     -13.058   9.846  72.561  0.00  0.00     0.028 H 
ATOM     38  H15 non d ame     -13.605   8.318  71.832  0.00  0.00     0.028 H 
ENDBRANCH  33  35
BRANCH  33  39
ATOM     39  C13 non d ame     -10.924   7.281  73.190  0.00  0.00    -0.071 C 
ATOM     40  H16 non d ame     -11.352   6.320  72.905  0.00  0.00     0.028 H 
ATOM     41  H17 non d ame      -9.838   7.233  73.115  0.00  0.00     0.028 H 
ATOM     42  H18 non d ame     -11.207   7.516  74.215  0.00  0.00     0.028 H 
ENDBRANCH  33  39
ENDBRANCH   7  33
ENDBRANCH   4   7
ENDBRANCH   1   3
BRANCH   1  43
ATOM     43  C15 non d ame     -11.341  11.682  67.980  0.00  0.00     0.240 C 
ATOM     44  O5  non d ame     -12.111  12.034  67.144  0.00  0.00    -0.271 OA
ATOM     45  N6  non d ame     -11.204  12.469  69.239  0.00  0.00    -0.355 N 
ATOM     46  H46 non d ame     -10.557  12.178  69.957  0.00  0.00     0.162 HD
BRANCH  45  47
ATOM     47  C20 non d ame     -12.022  13.685  69.436  0.00  0.00     0.013 C 
ATOM     48  H30 non d ame     -12.889  13.616  68.779  0.00  0.00     0.072 H 
BRANCH  47  49
ATOM     49  C21 non d ame     -11.200  14.903  69.081  0.00  0.00    -0.038 C 
ATOM     50  H31 non d ame     -11.490  15.673  69.796  0.00  0.00     0.036 H 
ATOM     51  H32 non d ame     -10.166  14.558  69.039  0.00  0.00     0.036 H 
BRANCH  49  52
ATOM     52  C22 non d ame     -11.530  15.461  67.679  0.00  0.00     0.018 C 
ATOM     53  H33 non d ame     -12.437  14.945  67.362  0.00  0.00     0.048 H 
ATOM     54  H34 non d ame     -11.529  16.546  67.786  0.00  0.00     0.048 H 
BRANCH  52  55
ATOM     55  C23 non d ame     -10.454  15.134  66.607  0.00  0.00     0.259 C 
ATOM     56  O7  non d ame     -10.772  14.694  65.550  0.00  0.00    -0.265 OA
BRANCH  55  57
ATOM     57  O8  non d ame      -9.081  15.353  66.906  0.00  0.00    -0.317 OA
BRANCH  57  58
ATOM     58  C29 non d ame      -8.511  16.481  66.236  0.00  0.00     0.052 C 
ATOM     59  H47 non d ame      -7.444  16.447  66.456  0.00  0.00     0.082 H 
ATOM     60  H48 non d ame      -8.856  16.416  65.204  0.00  0.00     0.082 H 
BRANCH  58  61
ATOM     61  C35 non d ame      -9.103  17.766  66.872  0.00  0.00    -0.034 A 
ATOM     62  C30 non d ame      -9.974  18.567  66.141  0.00  0.00    -0.075 A 
ATOM     63  C31 non d ame     -10.507  19.722  66.712  0.00  0.00    -0.082 A 
ATOM     64  H49 non d ame     -10.239  18.290  65.122  0.00  0.00     0.084 H 
ATOM     65  C32 non d ame     -10.163  20.075  68.020  0.00  0.00    -0.083 A 
ATOM     66  H50 non d ame     -11.190  20.346  66.138  0.00  0.00     0.083 H 
ATOM     67  C33 non d ame      -9.291  19.275  68.745  0.00  0.00    -0.082 A 
ATOM     68  H51 non d ame     -10.575  20.977  68.475  0.00  0.00     0.083 H 
ATOM     69  C34 non d ame      -8.758  18.118  68.178  0.00  0.00    -0.075 A 
ATOM     70  H52 non d ame      -9.023  19.555  69.764  0.00  0.00     0.083 H 
ATOM     71  H53 non d ame      -8.074  17.494  68.755  0.00  0.00     0.084 H 
ENDBRANCH  58  61
ENDBRANCH  57  58
ENDBRANCH  55  57
ENDBRANCH  52  55
ENDBRANCH  49  52
ENDBRANCH  47  49
BRANCH  47  72
ATOM     72  C24 non d ame     -12.466  13.777  70.894  0.00  0.00    -0.039 C 
ATOM     73  H35 non d ame     -13.410  13.234  70.945  0.00  0.00     0.036 H 
ATOM     74  H36 non d ame     -11.611  13.439  71.480  0.00  0.00     0.036 H 
BRANCH  72  75
ATOM     75  C25 non d ame     -12.768  15.289  71.327  0.00  0.00    -0.001 C 
ATOM     76  C26 non d ame     -11.698  15.767  72.481  0.00  0.00    -0.035 C 
ATOM     77  C27 non d ame     -12.385  16.285  73.526  0.00  0.00     0.085 C 
ATOM     78  H38 non d ame     -11.199  14.897  72.910  0.00  0.00     0.036 H 
ATOM     79  H39 non d ame     -11.109  16.610  72.119  0.00  0.00     0.036 H 
ATOM     80  N5  non d ame     -13.834  15.908  73.333  0.00  0.00    -0.049 N 
ATOM     81  H40 non d ame     -12.000  15.775  74.410  0.00  0.00     0.075 H 
ATOM     82  H41 non d ame     -12.285  17.366  73.433  0.00  0.00     0.075 H 
ATOM     83  C28 non d ame     -13.963  15.410  71.802  0.00  0.00     0.193 C 
ATOM     84  H42 non d ame     -14.009  15.122  73.942  0.00  0.00     0.280 HD
ATOM     85  H43 non d ame     -14.368  16.758  73.440  0.00  0.00     0.280 HD
ATOM     86  H44 non d ame     -14.414  16.054  71.047  0.00  0.00     0.129 H 
ATOM     87  H37 non d ame     -12.896  15.947  70.468  0.00  0.00     0.046 H 
BRANCH  83  88
ATOM     88  O6  non d ame     -14.693  14.184  71.744  0.00  0.00    -0.369 OA
ATOM     89  H45 non d ame     -15.279  14.196  70.984  0.00  0.00     0.212 HD
ENDBRANCH  83  88
ENDBRANCH  72  75
ENDBRANCH  47  72
ENDBRANCH  45  47
ENDBRANCH   1  43
BRANCH   1  90
ATOM     90  C16 non d ame     -10.501  10.030  66.281  0.00  0.00    -0.035 C 
ATOM     91  H21 non d ame     -11.352   9.360  66.158  0.00  0.00     0.037 H 
ATOM     92  H22 non d ame     -10.473  10.978  65.746  0.00  0.00     0.037 H 
BRANCH  90  93
ATOM     93  C17 non d ame      -9.240   9.228  65.827  0.00  0.00    -0.059 C 
ATOM     94  H23 non d ame      -9.416   8.177  66.057  0.00  0.00     0.038 H 
BRANCH  93  95
ATOM     95  C18 non d ame      -8.988   9.344  64.291  0.00  0.00    -0.073 C 
ATOM     96  H24 non d ame      -9.149   8.373  63.821  0.00  0.00     0.028 H 
ATOM     97  H25 non d ame      -9.678  10.072  63.863  0.00  0.00     0.028 H 
ATOM     98  H26 non d ame      -7.963   9.669  64.114  0.00  0.00     0.028 H 
ENDBRANCH  93  95
BRANCH  93  99
ATOM     99  C19 non d ame      -8.003   9.663  66.617  0.00  0.00    -0.073 C 
ATOM    100  H27 non d ame      -7.930  10.750  66.609  0.00  0.00     0.028 H 
ATOM    101  H28 non d ame      -8.087   9.312  67.646  0.00  0.00     0.028 H 
ATOM    102  H29 non d ame      -7.111   9.236  66.159  0.00  0.00     0.028 H 
ENDBRANCH  93  99
ENDBRANCH  90  93
ENDBRANCH   1  90
TORSDOF 26
ENDMDL
MODEL 8
REMARK VINA RESULT:      -6.8      4.443     10.452
REMARK  26 active torsions:
REMARK  status: ('A' for Active; 'I' for Inactive)
REMARK    1  A    between atoms: C2_2  and  C3_3 
REMARK    2  A    between atoms: C4_6  and  C5_7 
REMARK       I    between atoms: C5_7  and  N2_9 
REMARK    3  A    between atoms: N2_9  and  C6_10 
REMARK    4  A    between atoms: C6_10  and  C7_11 
REMARK    5  A    between atoms: C6_10  and  C8_13 
REMARK       I    between atoms: C7_11  and  N3_14 
REMARK    6  A    between atoms: N3_14  and  C9_15 
REMARK    7  A    between atoms: C9_15  and  C10_16 
REMARK    8  A    between atoms: C9_15  and  C11_18 
REMARK       I    between atoms: C10_16  and  N4_21 
REMARK    9  A    between atoms: C11_18  and  C12_19 
REMARK   10  A    between atoms: C11_18  and  C13_20 
REMARK   11  A    between atoms: N4_21  and  C14_22 
REMARK   12  A    between atoms: C14_22  and  C15_23 
REMARK   13  A    between atoms: C14_22  and  C16_25 
REMARK       I    between atoms: C15_23  and  N6_40 
REMARK   14  A    between atoms: C16_25  and  C17_26 
REMARK   15  A    between atoms: C17_26  and  C18_27 
REMARK   16  A    between atoms: C17_26  and  C19_28 
REMARK   17  A    between atoms: C20_29  and  C21_30 
REMARK   18  A    between atoms: C20_29  and  C24_33 
REMARK   19  A    between atoms: C20_29  and  N6_40 
REMARK   20  A    between atoms: C21_30  and  C22_31 
REMARK   21  A    between atoms: C22_31  and  C23_32 
REMARK   22  A    between atoms: C23_32  and  O8_43 
REMARK   23  A    between atoms: C24_33  and  C25_34 
REMARK   24  A    between atoms: C28_38  and  O6_39 
REMARK   25  A    between atoms: C29_42  and  O8_43 
REMARK   26  A    between atoms: C29_42  and  C35_49 
ROOT
ATOM      1  C14 non d ame      -8.201   8.488  63.261  0.00  0.00     0.089 C 
ATOM      2  H20 non d ame      -9.095   8.771  62.705  0.00  0.00     0.087 H 
ENDROOT
BRANCH   1   3
ATOM      3  N4  non d ame      -8.202   9.243  64.505  0.00  0.00    -0.346 N 
ATOM      4  C10 non d ame      -9.119  10.428  64.676  0.00  0.00     0.241 C 
ATOM      5  O4  non d ame      -9.846  10.757  63.797  0.00  0.00    -0.271 OA
ATOM      6  H19 non d ame      -7.574   8.949  65.240  0.00  0.00     0.163 HD
BRANCH   4   7
ATOM      7  C9  non d ame      -9.112  11.195  65.972  0.00  0.00     0.092 C 
ATOM      8  H11 non d ame      -8.481  12.077  65.863  0.00  0.00     0.088 H 
BRANCH   7   9
ATOM      9  N3  non d ame     -10.467  11.667  66.270  0.00  0.00    -0.346 N 
ATOM     10  C7  non d ame     -10.771  13.075  66.208  0.00  0.00     0.240 C 
ATOM     11  O3  non d ame      -9.936  13.843  65.922  0.00  0.00    -0.271 OA
ATOM     12  H10 non d ame     -11.198  11.016  66.520  0.00  0.00     0.163 HD
BRANCH  10  13
ATOM     13  C6  non d ame     -12.215  13.570  66.529  0.00  0.00     0.086 C 
ATOM     14  H6  non d ame     -12.904  12.753  66.742  0.00  0.00     0.086 H 
BRANCH  13  15
ATOM     15  N2  non d ame     -12.174  14.401  67.721  0.00  0.00    -0.343 N 
ATOM     16  C5  non d ame     -12.053  13.769  69.036  0.00  0.00     0.273 C 
ATOM     17  O2  non d ame     -11.993  12.592  69.125  0.00  0.00    -0.266 OA
ATOM     18  H5  non d ame     -12.228  15.406  67.636  0.00  0.00     0.163 HD
BRANCH  16  19
ATOM     19  C4  non d ame     -12.006  14.635  70.305  0.00  0.00     0.154 A 
ATOM     20  C1  non d ame     -12.420  14.261  71.623  0.00  0.00    -0.017 A 
ATOM     21  C2  non d ame     -12.174  15.402  72.419  0.00  0.00     0.077 A 
ATOM     22  H1  non d ame     -12.836  13.308  71.952  0.00  0.00     0.091 H 
ATOM     23  O1  non d ame     -11.675  16.318  71.641  0.00  0.00    -0.218 OA
ATOM     24  N1  non d ame     -11.569  15.894  70.402  0.00  0.00    -0.123 NA
BRANCH  21  25
ATOM     25  C3  non d ame     -12.440  15.533  73.912  0.00  0.00    -0.029 C 
ATOM     26  H2  non d ame     -11.738  16.247  74.346  0.00  0.00     0.036 H 
ATOM     27  H3  non d ame     -13.459  15.886  74.070  0.00  0.00     0.036 H 
ATOM     28  H4  non d ame     -12.313  14.563  74.392  0.00  0.00     0.036 H 
ENDBRANCH  21  25
ENDBRANCH  16  19
ENDBRANCH  13  15
BRANCH  13  29
ATOM     29  C8  non d ame     -12.748  14.365  65.364  0.00  0.00    -0.049 C 
ATOM     30  H7  non d ame     -13.047  15.356  65.706  0.00  0.00     0.030 H 
ATOM     31  H8  non d ame     -11.971  14.462  64.605  0.00  0.00     0.030 H 
ATOM     32  H9  non d ame     -13.610  13.854  64.939  0.00  0.00     0.030 H 
ENDBRANCH  13  29
ENDBRANCH  10  13
ENDBRANCH   7   9
BRANCH   7  33
ATOM     33  C11 non d ame      -8.624  10.266  67.122  0.00  0.00    -0.033 C 
ATOM     34  H12 non d ame      -8.486   9.269  66.703  0.00  0.00     0.042 H 
BRANCH  33  35
ATOM     35  C12 non d ame      -7.246  10.733  67.685  0.00  0.00    -0.071 C 
ATOM     36  H13 non d ame      -7.058  11.762  67.379  0.00  0.00     0.028 H 
ATOM     37  H14 non d ame      -7.259  10.676  68.774  0.00  0.00     0.028 H 
ATOM     38  H15 non d ame      -6.458  10.088  67.298  0.00  0.00     0.028 H 
ENDBRANCH  33  35
BRANCH  33  39
ATOM     39  C13 non d ame      -9.696  10.169  68.255  0.00  0.00    -0.071 C 
ATOM     40  H16 non d ame     -10.587  10.722  67.960  0.00  0.00     0.028 H 
ATOM     41  H17 non d ame      -9.955   9.124  68.423  0.00  0.00     0.028 H 
ATOM     42  H18 non d ame      -9.291  10.595  69.173  0.00  0.00     0.028 H 
ENDBRANCH  33  39
ENDBRANCH   7  33
ENDBRANCH   4   7
ENDBRANCH   1   3
BRANCH   1  43
ATOM     43  C15 non d ame      -8.177   6.971  63.603  0.00  0.00     0.240 C 
ATOM     44  O5  non d ame      -7.827   6.185  62.781  0.00  0.00    -0.271 OA
ATOM     45  N6  non d ame      -8.580   6.496  64.957  0.00  0.00    -0.355 N 
ATOM     46  H46 non d ame      -8.875   7.154  65.664  0.00  0.00     0.162 HD
BRANCH  45  47
ATOM     47  C20 non d ame      -8.550   5.051  65.266  0.00  0.00     0.013 C 
ATOM     48  H30 non d ame      -8.312   4.516  64.347  0.00  0.00     0.072 H 
BRANCH  47  49
ATOM     49  C21 non d ame      -9.907   4.620  65.777  0.00  0.00    -0.038 C 
ATOM     50  H31 non d ame     -10.617   5.339  65.368  0.00  0.00     0.036 H 
ATOM     51  H32 non d ame      -9.993   3.562  65.524  0.00  0.00     0.036 H 
BRANCH  49  52
ATOM     52  C22 non d ame     -10.026   4.712  67.313  0.00  0.00     0.018 C 
ATOM     53  H33 non d ame     -10.658   3.874  67.611  0.00  0.00     0.048 H 
ATOM     54  H34 non d ame      -9.003   4.782  67.685  0.00  0.00     0.048 H 
BRANCH  52  55
ATOM     55  C23 non d ame     -10.753   5.993  67.809  0.00  0.00     0.259 C 
ATOM     56  O7  non d ame     -10.881   6.929  67.089  0.00  0.00    -0.265 OA
BRANCH  55  57
ATOM     57  O8  non d ame     -11.252   6.041  69.140  0.00  0.00    -0.317 OA
BRANCH  57  58
ATOM     58  C29 non d ame     -10.641   7.044  69.956  0.00  0.00     0.052 C 
ATOM     59  H47 non d ame     -10.022   6.506  70.672  0.00  0.00     0.082 H 
ATOM     60  H48 non d ame     -10.184   7.750  69.262  0.00  0.00     0.082 H 
BRANCH  58  61
ATOM     61  C35 non d ame     -11.766   7.779  70.733  0.00  0.00    -0.034 A 
ATOM     62  C30 non d ame     -11.624   9.124  71.056  0.00  0.00    -0.075 A 
ATOM     63  C31 non d ame     -12.634   9.785  71.754  0.00  0.00    -0.082 A 
ATOM     64  H49 non d ame     -10.723   9.661  70.763  0.00  0.00     0.084 H 
ATOM     65  C32 non d ame     -13.789   9.093  72.131  0.00  0.00    -0.083 A 
ATOM     66  H50 non d ame     -12.521  10.839  72.005  0.00  0.00     0.083 H 
ATOM     67  C33 non d ame     -13.925   7.750  71.809  0.00  0.00    -0.082 A 
ATOM     68  H51 non d ame     -14.583   9.602  72.677  0.00  0.00     0.083 H 
ATOM     69  C34 non d ame     -12.918   7.087  71.109  0.00  0.00    -0.075 A 
ATOM     70  H52 non d ame     -14.825   7.212  72.107  0.00  0.00     0.083 H 
ATOM     71  H53 non d ame     -13.033   6.031  70.859  0.00  0.00     0.084 H 
ENDBRANCH  58  61
ENDBRANCH  57  58
ENDBRANCH  55  57
ENDBRANCH  52  55
ENDBRANCH  49  52
ENDBRANCH  47  49
BRANCH  47  72
ATOM     72  C24 non d ame      -7.492   4.773  66.332  0.00  0.00    -0.039 C 
ATOM     73  H35 non d ame      -7.639   5.538  67.094  0.00  0.00     0.036 H 
ATOM     74  H36 non d ame      -7.608   3.719  66.589  0.00  0.00     0.036 H 
BRANCH  72  75
ATOM     75  C25 non d ame      -6.009   4.957  65.756  0.00  0.00    -0.001 C 
ATOM     76  C26 non d ame      -5.070   3.685  66.205  0.00  0.00    -0.035 C 
ATOM     77  C27 non d ame      -3.935   4.157  66.773  0.00  0.00     0.085 C 
ATOM     78  H38 non d ame      -5.550   3.135  67.015  0.00  0.00     0.036 H 
ATOM     79  H39 non d ame      -4.712   3.153  65.323  0.00  0.00     0.036 H 
ATOM     80  N5  non d ame      -4.157   5.625  67.048  0.00  0.00    -0.049 N 
ATOM     81  H40 non d ame      -3.841   3.629  67.722  0.00  0.00     0.075 H 
ATOM     82  H41 non d ame      -3.163   4.053  66.011  0.00  0.00     0.075 H 
ATOM     83  C28 non d ame      -5.467   6.043  66.200  0.00  0.00     0.193 C 
ATOM     84  H42 non d ame      -4.373   5.703  68.031  0.00  0.00     0.280 HD
ATOM     85  H43 non d ame      -3.359   6.112  66.666  0.00  0.00     0.280 HD
ATOM     86  H44 non d ame      -5.369   6.610  65.274  0.00  0.00     0.129 H 
ATOM     87  H37 non d ame      -6.006   5.227  64.700  0.00  0.00     0.046 H 
BRANCH  83  88
ATOM     88  O6  non d ame      -6.362   6.797  67.018  0.00  0.00    -0.369 OA
ATOM     89  H45 non d ame      -6.215   6.578  67.941  0.00  0.00     0.212 HD
ENDBRANCH  83  88
ENDBRANCH  72  75
ENDBRANCH  47  72
ENDBRANCH  45  47
ENDBRANCH   1  43
BRANCH   1  90
ATOM     90  C16 non d ame      -6.960   8.852  62.460  0.00  0.00    -0.035 C 
ATOM     91  H21 non d ame      -6.765   7.989  61.823  0.00  0.00     0.037 H 
ATOM     92  H22 non d ame      -7.179   9.821  62.013  0.00  0.00     0.037 H 
BRANCH  90  93
ATOM     93  C17 non d ame      -5.684   9.049  63.338  0.00  0.00    -0.059 C 
ATOM     94  H23 non d ame      -5.975   8.912  64.380  0.00  0.00     0.038 H 
BRANCH  93  95
ATOM     95  C18 non d ame      -4.575   7.999  63.011  0.00  0.00    -0.073 C 
ATOM     96  H24 non d ame      -3.601   8.400  63.294  0.00  0.00     0.028 H 
ATOM     97  H25 non d ame      -4.765   7.083  63.570  0.00  0.00     0.028 H 
ATOM     98  H26 non d ame      -4.583   7.781  61.944  0.00  0.00     0.028 H 
ENDBRANCH  93  95
BRANCH  93  99
ATOM     99  C19 non d ame      -5.142  10.475  63.203  0.00  0.00    -0.073 C 
ATOM    100  H27 non d ame      -5.773  11.038  62.515  0.00  0.00     0.028 H 
ATOM    101  H28 non d ame      -5.145  10.959  64.179  0.00  0.00     0.028 H 
ATOM    102  H29 non d ame      -4.124  10.441  62.817  0.00  0.00     0.028 H 
ENDBRANCH  93  99
ENDBRANCH  90  93
ENDBRANCH   1  90
TORSDOF 26
ENDMDL
MODEL 9
REMARK VINA RESULT:      -6.8      2.516      6.131
REMARK  26 active torsions:
REMARK  status: ('A' for Active; 'I' for Inactive)
REMARK    1  A    between atoms: C2_2  and  C3_3 
REMARK    2  A    between atoms: C4_6  and  C5_7 
REMARK       I    between atoms: C5_7  and  N2_9 
REMARK    3  A    between atoms: N2_9  and  C6_10 
REMARK    4  A    between atoms: C6_10  and  C7_11 
REMARK    5  A    between atoms: C6_10  and  C8_13 
REMARK       I    between atoms: C7_11  and  N3_14 
REMARK    6  A    between atoms: N3_14  and  C9_15 
REMARK    7  A    between atoms: C9_15  and  C10_16 
REMARK    8  A    between atoms: C9_15  and  C11_18 
REMARK       I    between atoms: C10_16  and  N4_21 
REMARK    9  A    between atoms: C11_18  and  C12_19 
REMARK   10  A    between atoms: C11_18  and  C13_20 
REMARK   11  A    between atoms: N4_21  and  C14_22 
REMARK   12  A    between atoms: C14_22  and  C15_23 
REMARK   13  A    between atoms: C14_22  and  C16_25 
REMARK       I    between atoms: C15_23  and  N6_40 
REMARK   14  A    between atoms: C16_25  and  C17_26 
REMARK   15  A    between atoms: C17_26  and  C18_27 
REMARK   16  A    between atoms: C17_26  and  C19_28 
REMARK   17  A    between atoms: C20_29  and  C21_30 
REMARK   18  A    between atoms: C20_29  and  C24_33 
REMARK   19  A    between atoms: C20_29  and  N6_40 
REMARK   20  A    between atoms: C21_30  and  C22_31 
REMARK   21  A    between atoms: C22_31  and  C23_32 
REMARK   22  A    between atoms: C23_32  and  O8_43 
REMARK   23  A    between atoms: C24_33  and  C25_34 
REMARK   24  A    between atoms: C28_38  and  O6_39 
REMARK   25  A    between atoms: C29_42  and  O8_43 
REMARK   26  A    between atoms: C29_42  and  C35_49 
ROOT
ATOM      1  C14 non d ame     -10.897   9.320  69.414  0.00  0.00     0.089 C 
ATOM      2  H20 non d ame     -11.422   8.544  68.858  0.00  0.00     0.087 H 
ENDROOT
BRANCH   1   3
ATOM      3  N4  non d ame      -9.527   9.361  68.924  0.00  0.00    -0.346 N 
ATOM      4  C10 non d ame      -8.852   8.100  68.445  0.00  0.00     0.241 C 
ATOM      5  O4  non d ame      -9.430   7.064  68.467  0.00  0.00    -0.271 OA
ATOM      6  H19 non d ame      -9.051  10.253  68.916  0.00  0.00     0.163 HD
BRANCH   4   7
ATOM      7  C9  non d ame      -7.436   8.161  67.936  0.00  0.00     0.092 C 
ATOM      8  H11 non d ame      -7.159   7.188  67.530  0.00  0.00     0.088 H 
BRANCH   7   9
ATOM      9  N3  non d ame      -7.353   9.127  66.836  0.00  0.00    -0.346 N 
ATOM     10  C7  non d ame      -6.995   8.684  65.512  0.00  0.00     0.240 C 
ATOM     11  O3  non d ame      -6.768   7.553  65.312  0.00  0.00    -0.271 OA
ATOM     12  H10 non d ame      -7.544  10.107  66.993  0.00  0.00     0.163 HD
BRANCH  10  13
ATOM     13  C6  non d ame      -6.906   9.718  64.347  0.00  0.00     0.086 C 
ATOM     14  H6  non d ame      -6.986   9.255  63.364  0.00  0.00     0.086 H 
BRANCH  13  15
ATOM     15  N2  non d ame      -8.014  10.651  64.459  0.00  0.00    -0.343 N 
ATOM     16  C5  non d ame      -9.259  10.382  63.735  0.00  0.00     0.273 C 
ATOM     17  O2  non d ame      -9.357   9.413  63.065  0.00  0.00    -0.266 OA
ATOM     18  H5  non d ame      -7.922  11.477  65.032  0.00  0.00     0.163 HD
BRANCH  16  19
ATOM     19  C4  non d ame     -10.441  11.358  63.846  0.00  0.00     0.154 A 
ATOM     20  C1  non d ame     -10.769  12.195  64.960  0.00  0.00    -0.017 A 
ATOM     21  C2  non d ame     -11.932  12.891  64.562  0.00  0.00     0.077 A 
ATOM     22  H1  non d ame     -10.243  12.285  65.911  0.00  0.00     0.091 H 
ATOM     23  O1  non d ame     -12.228  12.494  63.358  0.00  0.00    -0.218 OA
ATOM     24  N1  non d ame     -11.373  11.599  62.920  0.00  0.00    -0.123 NA
BRANCH  21  25
ATOM     25  C3  non d ame     -12.696  13.917  65.387  0.00  0.00    -0.029 C 
ATOM     26  H2  non d ame     -12.071  14.799  65.541  0.00  0.00     0.036 H 
ATOM     27  H3  non d ame     -13.605  14.204  64.859  0.00  0.00     0.036 H 
ATOM     28  H4  non d ame     -12.958  13.486  66.353  0.00  0.00     0.036 H 
ENDBRANCH  21  25
ENDBRANCH  16  19
ENDBRANCH  13  15
BRANCH  13  29
ATOM     29  C8  non d ame      -5.597  10.461  64.429  0.00  0.00    -0.049 C 
ATOM     30  H7  non d ame      -4.832   9.913  63.878  0.00  0.00     0.030 H 
ATOM     31  H8  non d ame      -5.715  11.455  63.995  0.00  0.00     0.030 H 
ATOM     32  H9  non d ame      -5.296  10.553  65.472  0.00  0.00     0.030 H 
ENDBRANCH  13  29
ENDBRANCH  10  13
ENDBRANCH   7   9
BRANCH   7  33
ATOM     33  C11 non d ame      -6.488   8.607  69.087  0.00  0.00    -0.033 C 
ATOM     34  H12 non d ame      -6.797   9.605  69.399  0.00  0.00     0.042 H 
BRANCH  33  35
ATOM     35  C12 non d ame      -6.619   7.667  70.327  0.00  0.00    -0.071 C 
ATOM     36  H13 non d ame      -7.659   7.634  70.649  0.00  0.00     0.028 H 
ATOM     37  H14 non d ame      -6.289   6.664  70.058  0.00  0.00     0.028 H 
ATOM     38  H15 non d ame      -5.998   8.048  71.137  0.00  0.00     0.028 H 
ENDBRANCH  33  35
BRANCH  33  39
ATOM     39  C13 non d ame      -5.009   8.691  68.593  0.00  0.00    -0.071 C 
ATOM     40  H16 non d ame      -4.425   9.287  69.293  0.00  0.00     0.028 H 
ATOM     41  H17 non d ame      -4.588   7.687  68.530  0.00  0.00     0.028 H 
ATOM     42  H18 non d ame      -4.982   9.158  67.609  0.00  0.00     0.028 H 
ENDBRANCH  33  39
ENDBRANCH   7  33
ENDBRANCH   4   7
ENDBRANCH   1   3
BRANCH   1  43
ATOM     43  C15 non d ame     -11.537  10.724  69.212  0.00  0.00     0.240 C 
ATOM     44  O5  non d ame     -11.981  11.023  68.150  0.00  0.00    -0.271 OA
ATOM     45  N6  non d ame     -11.605  11.691  70.343  0.00  0.00    -0.355 N 
ATOM     46  H46 non d ame     -11.236  11.447  71.251  0.00  0.00     0.162 HD
BRANCH  45  47
ATOM     47  C20 non d ame     -12.218  13.021  70.135  0.00  0.00     0.013 C 
ATOM     48  H30 non d ame     -12.880  12.953  69.271  0.00  0.00     0.072 H 
BRANCH  47  49
ATOM     49  C21 non d ame     -11.131  14.038  69.873  0.00  0.00    -0.038 C 
ATOM     50  H31 non d ame     -11.445  14.945  70.389  0.00  0.00     0.036 H 
ATOM     51  H32 non d ame     -10.197  13.547  70.151  0.00  0.00     0.036 H 
BRANCH  49  52
ATOM     52  C22 non d ame     -11.002  14.407  68.379  0.00  0.00     0.018 C 
ATOM     53  H33 non d ame     -10.010  14.069  68.076  0.00  0.00     0.048 H 
ATOM     54  H34 non d ame     -11.889  13.996  67.896  0.00  0.00     0.048 H 
BRANCH  52  55
ATOM     55  C23 non d ame     -11.033  15.936  68.108  0.00  0.00     0.259 C 
ATOM     56  O7  non d ame     -11.618  16.666  68.840  0.00  0.00    -0.265 OA
BRANCH  55  57
ATOM     57  O8  non d ame     -10.366  16.456  66.964  0.00  0.00    -0.317 OA
BRANCH  57  58
ATOM     58  C29 non d ame     -10.486  17.873  66.812  0.00  0.00     0.052 C 
ATOM     59  H47 non d ame     -10.866  18.031  65.803  0.00  0.00     0.082 H 
ATOM     60  H48 non d ame     -11.065  18.213  67.671  0.00  0.00     0.082 H 
BRANCH  58  61
ATOM     61  C35 non d ame      -9.064  18.487  66.904  0.00  0.00    -0.034 A 
ATOM     62  C30 non d ame      -7.947  17.696  66.660  0.00  0.00    -0.075 A 
ATOM     63  C31 non d ame      -6.669  18.247  66.743  0.00  0.00    -0.082 A 
ATOM     64  H49 non d ame      -8.072  16.644  66.404  0.00  0.00     0.084 H 
ATOM     65  C32 non d ame      -6.511  19.595  67.074  0.00  0.00    -0.083 A 
ATOM     66  H50 non d ame      -5.796  17.624  66.550  0.00  0.00     0.083 H 
ATOM     67  C33 non d ame      -7.629  20.381  67.320  0.00  0.00    -0.082 A 
ATOM     68  H51 non d ame      -5.516  20.034  67.141  0.00  0.00     0.083 H 
ATOM     69  C34 non d ame      -8.908  19.834  67.235  0.00  0.00    -0.075 A 
ATOM     70  H52 non d ame      -7.502  21.432  67.580  0.00  0.00     0.083 H 
ATOM     71  H53 non d ame      -9.782  20.459  67.429  0.00  0.00     0.084 H 
ENDBRANCH  58  61
ENDBRANCH  57  58
ENDBRANCH  55  57
ENDBRANCH  52  55
ENDBRANCH  49  52
ENDBRANCH  47  49
BRANCH  47  72
ATOM     72  C24 non d ame     -13.007  13.426  71.378  0.00  0.00    -0.039 C 
ATOM     73  H35 non d ame     -14.057  13.323  71.102  0.00  0.00     0.036 H 
ATOM     74  H36 non d ame     -12.597  12.827  72.191  0.00  0.00     0.036 H 
BRANCH  72  75
ATOM     75  C25 non d ame     -12.767  14.964  71.757  0.00  0.00    -0.001 C 
ATOM     76  C26 non d ame     -12.029  15.072  73.223  0.00  0.00    -0.035 C 
ATOM     77  C27 non d ame     -12.731  15.928  74.002  0.00  0.00     0.085 C 
ATOM     78  H38 non d ame     -12.110  14.122  73.751  0.00  0.00     0.036 H 
ATOM     79  H39 non d ame     -11.059  15.558  73.119  0.00  0.00     0.036 H 
ATOM     80  N5  non d ame     -14.056  16.163  73.319  0.00  0.00    -0.049 N 
ATOM     81  H40 non d ame     -12.903  15.397  74.939  0.00  0.00     0.075 H 
ATOM     82  H41 non d ame     -12.161  16.858  73.999  0.00  0.00     0.075 H 
ATOM     83  C28 non d ame     -13.883  15.612  71.811  0.00  0.00     0.193 C 
ATOM     84  H42 non d ame     -14.732  15.584  73.798  0.00  0.00     0.280 HD
ATOM     85  H43 non d ame     -14.187  17.164  73.282  0.00  0.00     0.280 HD
ATOM     86  H44 non d ame     -13.752  16.305  70.980  0.00  0.00     0.129 H 
ATOM     87  H37 non d ame     -12.323  15.527  70.936  0.00  0.00     0.046 H 
BRANCH  83  88
ATOM     88  O6  non d ame     -14.999  14.795  71.455  0.00  0.00    -0.369 OA
ATOM     89  H45 non d ame     -15.790  15.335  71.412  0.00  0.00     0.212 HD
ENDBRANCH  83  88
ENDBRANCH  72  75
ENDBRANCH  47  72
ENDBRANCH  45  47
ENDBRANCH   1  43
BRANCH   1  90
ATOM     90  C16 non d ame     -10.884   8.973  70.895  0.00  0.00    -0.035 C 
ATOM     91  H21 non d ame      -9.986   8.372  71.042  0.00  0.00     0.037 H 
ATOM     92  H22 non d ame     -10.993   9.924  71.415  0.00  0.00     0.037 H 
BRANCH  90  93
ATOM     93  C17 non d ame     -12.088   8.085  71.341  0.00  0.00    -0.059 C 
ATOM     94  H23 non d ame     -12.623   7.778  70.442  0.00  0.00     0.038 H 
BRANCH  93  95
ATOM     95  C18 non d ame     -11.624   6.792  72.083  0.00  0.00    -0.073 C 
ATOM     96  H24 non d ame     -11.478   7.013  73.141  0.00  0.00     0.028 H 
ATOM     97  H25 non d ame     -12.385   6.018  71.977  0.00  0.00     0.028 H 
ATOM     98  H26 non d ame     -10.687   6.440  71.652  0.00  0.00     0.028 H 
ENDBRANCH  93  95
BRANCH  93  99
ATOM     99  C19 non d ame     -13.069   8.885  72.201  0.00  0.00    -0.073 C 
ATOM    100  H27 non d ame     -13.683   9.516  71.559  0.00  0.00     0.028 H 
ATOM    101  H28 non d ame     -13.708   8.200  72.757  0.00  0.00     0.028 H 
ATOM    102  H29 non d ame     -12.513   9.511  72.899  0.00  0.00     0.028 H 
ENDBRANCH  93  99
ENDBRANCH  90  93
ENDBRANCH   1  90
TORSDOF 26
ENDMDL
MODEL 10
REMARK VINA RESULT:      -6.7      3.911      9.910
REMARK  26 active torsions:
REMARK  status: ('A' for Active; 'I' for Inactive)
REMARK    1  A    between atoms: C2_2  and  C3_3 
REMARK    2  A    between atoms: C4_6  and  C5_7 
REMARK       I    between atoms: C5_7  and  N2_9 
REMARK    3  A    between atoms: N2_9  and  C6_10 
REMARK    4  A    between atoms: C6_10  and  C7_11 
REMARK    5  A    between atoms: C6_10  and  C8_13 
REMARK       I    between atoms: C7_11  and  N3_14 
REMARK    6  A    between atoms: N3_14  and  C9_15 
REMARK    7  A    between atoms: C9_15  and  C10_16 
REMARK    8  A    between atoms: C9_15  and  C11_18 
REMARK       I    between atoms: C10_16  and  N4_21 
REMARK    9  A    between atoms: C11_18  and  C12_19 
REMARK   10  A    between atoms: C11_18  and  C13_20 
REMARK   11  A    between atoms: N4_21  and  C14_22 
REMARK   12  A    between atoms: C14_22  and  C15_23 
REMARK   13  A    between atoms: C14_22  and  C16_25 
REMARK       I    between atoms: C15_23  and  N6_40 
REMARK   14  A    between atoms: C16_25  and  C17_26 
REMARK   15  A    between atoms: C17_26  and  C18_27 
REMARK   16  A    between atoms: C17_26  and  C19_28 
REMARK   17  A    between atoms: C20_29  and  C21_30 
REMARK   18  A    between atoms: C20_29  and  C24_33 
REMARK   19  A    between atoms: C20_29  and  N6_40 
REMARK   20  A    between atoms: C21_30  and  C22_31 
REMARK   21  A    between atoms: C22_31  and  C23_32 
REMARK   22  A    between atoms: C23_32  and  O8_43 
REMARK   23  A    between atoms: C24_33  and  C25_34 
REMARK   24  A    between atoms: C28_38  and  O6_39 
REMARK   25  A    between atoms: C29_42  and  O8_43 
REMARK   26  A    between atoms: C29_42  and  C35_49 
ROOT
ATOM      1  C14 non d ame      -7.551   9.069  66.700  0.00  0.00     0.089 C 
ATOM      2  H20 non d ame      -7.545   8.382  65.854  0.00  0.00     0.087 H 
ENDROOT
BRANCH   1   3
ATOM      3  N4  non d ame      -8.468  10.152  66.380  0.00  0.00    -0.346 N 
ATOM      4  C10 non d ame      -9.796   9.858  65.727  0.00  0.00     0.241 C 
ATOM      5  O4  non d ame     -10.102   8.741  65.467  0.00  0.00    -0.271 OA
ATOM      6  H19 non d ame      -8.187  11.096  66.607  0.00  0.00     0.163 HD
BRANCH   4   7
ATOM      7  C9  non d ame     -10.735  10.991  65.407  0.00  0.00     0.092 C 
ATOM      8  H11 non d ame     -11.717  10.772  65.827  0.00  0.00     0.088 H 
BRANCH   7   9
ATOM      9  N3  non d ame     -10.256  12.220  66.047  0.00  0.00    -0.346 N 
ATOM     10  C7  non d ame     -11.013  12.818  67.118  0.00  0.00     0.240 C 
ATOM     11  O3  non d ame     -12.012  12.325  67.477  0.00  0.00    -0.271 OA
ATOM     12  H10 non d ame      -9.397  12.657  65.747  0.00  0.00     0.163 HD
BRANCH  10  13
ATOM     13  C6  non d ame     -10.499  14.128  67.792  0.00  0.00     0.086 C 
ATOM     14  H6  non d ame     -10.825  15.027  67.270  0.00  0.00     0.086 H 
BRANCH  13  15
ATOM     15  N2  non d ame     -11.042  14.208  69.138  0.00  0.00    -0.343 N 
ATOM     16  C5  non d ame     -11.772  15.410  69.550  0.00  0.00     0.273 C 
ATOM     17  O2  non d ame     -11.914  16.306  68.793  0.00  0.00    -0.266 OA
ATOM     18  H5  non d ame     -10.915  13.440  69.780  0.00  0.00     0.163 HD
BRANCH  16  19
ATOM     19  C4  non d ame     -12.353  15.509  70.969  0.00  0.00     0.154 A 
ATOM     20  C1  non d ame     -11.627  15.675  72.191  0.00  0.00    -0.017 A 
ATOM     21  C2  non d ame     -12.616  15.707  73.200  0.00  0.00     0.077 A 
ATOM     22  H1  non d ame     -10.548  15.760  72.326  0.00  0.00     0.091 H 
ATOM     23  O1  non d ame     -13.771  15.575  72.615  0.00  0.00    -0.218 OA
ATOM     24  N1  non d ame     -13.643  15.457  71.313  0.00  0.00    -0.123 NA
BRANCH  21  25
ATOM     25  C3  non d ame     -12.374  15.868  74.695  0.00  0.00    -0.029 C 
ATOM     26  H2  non d ame     -13.179  16.459  75.133  0.00  0.00     0.036 H 
ATOM     27  H3  non d ame     -12.346  14.886  75.166  0.00  0.00     0.036 H 
ATOM     28  H4  non d ame     -11.422  16.376  74.857  0.00  0.00     0.036 H 
ENDBRANCH  21  25
ENDBRANCH  16  19
ENDBRANCH  13  15
BRANCH  13  29
ATOM     29  C8  non d ame      -8.993  14.112  67.844  0.00  0.00    -0.049 C 
ATOM     30  H7  non d ame      -8.646  13.100  68.054  0.00  0.00     0.030 H 
ATOM     31  H8  non d ame      -8.593  14.442  66.884  0.00  0.00     0.030 H 
ATOM     32  H9  non d ame      -8.649  14.783  68.631  0.00  0.00     0.030 H 
ENDBRANCH  13  29
ENDBRANCH  10  13
ENDBRANCH   7   9
BRANCH   7  33
ATOM     33  C11 non d ame     -10.791  11.199  63.865  0.00  0.00    -0.033 C 
ATOM     34  H12 non d ame     -11.211  10.294  63.426  0.00  0.00     0.042 H 
BRANCH  33  35
ATOM     35  C12 non d ame     -11.731  12.385  63.485  0.00  0.00    -0.071 C 
ATOM     36  H13 non d ame     -11.601  12.628  62.431  0.00  0.00     0.028 H 
ATOM     37  H14 non d ame     -12.767  12.100  63.668  0.00  0.00     0.028 H 
ATOM     38  H15 non d ame     -11.482  13.255  64.093  0.00  0.00     0.028 H 
ENDBRANCH  33  35
BRANCH  33  39
ATOM     39  C13 non d ame      -9.358  11.402  63.277  0.00  0.00    -0.071 C 
ATOM     40  H16 non d ame      -9.154  10.625  62.540  0.00  0.00     0.028 H 
ATOM     41  H17 non d ame      -9.295  12.380  62.800  0.00  0.00     0.028 H 
ATOM     42  H18 non d ame      -8.624  11.341  64.080  0.00  0.00     0.028 H 
ENDBRANCH  33  39
ENDBRANCH   7  33
ENDBRANCH   4   7
ENDBRANCH   1   3
BRANCH   1  43
ATOM     43  C15 non d ame      -8.034   8.382  68.010  0.00  0.00     0.240 C 
ATOM     44  O5  non d ame      -7.548   8.687  69.052  0.00  0.00    -0.271 OA
ATOM     45  N6  non d ame      -9.110   7.352  67.968  0.00  0.00    -0.355 N 
ATOM     46  H46 non d ame      -9.534   7.088  67.091  0.00  0.00     0.162 HD
BRANCH  45  47
ATOM     47  C20 non d ame      -9.559   6.710  69.223  0.00  0.00     0.013 C 
ATOM     48  H30 non d ame      -8.871   7.004  70.015  0.00  0.00     0.072 H 
BRANCH  47  49
ATOM     49  C21 non d ame      -9.537   5.207  69.051  0.00  0.00    -0.038 C 
ATOM     50  H31 non d ame      -8.516   4.900  69.278  0.00  0.00     0.036 H 
ATOM     51  H32 non d ame     -10.366   4.831  69.652  0.00  0.00     0.036 H 
BRANCH  49  52
ATOM     52  C22 non d ame      -9.815   4.765  67.598  0.00  0.00     0.018 C 
ATOM     53  H33 non d ame     -10.510   3.928  67.672  0.00  0.00     0.048 H 
ATOM     54  H34 non d ame     -10.107   5.671  67.065  0.00  0.00     0.048 H 
BRANCH  52  55
ATOM     55  C23 non d ame      -8.562   4.218  66.861  0.00  0.00     0.259 C 
ATOM     56  O7  non d ame      -8.264   3.071  66.948  0.00  0.00    -0.265 OA
BRANCH  55  57
ATOM     57  O8  non d ame      -7.763   5.106  66.089  0.00  0.00    -0.317 OA
BRANCH  57  58
ATOM     58  C29 non d ame      -8.344   5.472  64.834  0.00  0.00     0.052 C 
ATOM     59  H47 non d ame      -8.391   4.553  64.251  0.00  0.00     0.082 H 
ATOM     60  H48 non d ame      -9.261   6.009  65.079  0.00  0.00     0.082 H 
BRANCH  58  61
ATOM     61  C35 non d ame      -7.374   6.455  64.126  0.00  0.00    -0.034 A 
ATOM     62  C30 non d ame      -7.879   7.508  63.370  0.00  0.00    -0.075 A 
ATOM     63  C31 non d ame      -7.008   8.391  62.734  0.00  0.00    -0.082 A 
ATOM     64  H49 non d ame      -8.956   7.641  63.277  0.00  0.00     0.084 H 
ATOM     65  C32 non d ame      -5.627   8.217  62.854  0.00  0.00    -0.083 A 
ATOM     66  H50 non d ame      -7.407   9.216  62.144  0.00  0.00     0.083 H 
ATOM     67  C33 non d ame      -5.127   7.163  63.607  0.00  0.00    -0.082 A 
ATOM     68  H51 non d ame      -4.939   8.903  62.360  0.00  0.00     0.083 H 
ATOM     69  C34 non d ame      -5.995   6.279  64.246  0.00  0.00    -0.075 A 
ATOM     70  H52 non d ame      -4.049   7.028  63.696  0.00  0.00     0.083 H 
ATOM     71  H53 non d ame      -5.594   5.453  64.837  0.00  0.00     0.084 H 
ENDBRANCH  58  61
ENDBRANCH  57  58
ENDBRANCH  55  57
ENDBRANCH  52  55
ENDBRANCH  49  52
ENDBRANCH  47  49
BRANCH  47  72
ATOM     72  C24 non d ame     -10.978   7.164  69.556  0.00  0.00    -0.039 C 
ATOM     73  H35 non d ame     -11.308   7.744  68.694  0.00  0.00     0.036 H 
ATOM     74  H36 non d ame     -11.515   6.258  69.840  0.00  0.00     0.036 H 
BRANCH  72  75
ATOM     75  C25 non d ame     -11.004   8.145  70.823  0.00  0.00    -0.001 C 
ATOM     76  C26 non d ame      -9.709   7.846  71.790  0.00  0.00    -0.035 C 
ATOM     77  C27 non d ame     -10.143   7.666  73.060  0.00  0.00     0.085 C 
ATOM     78  H38 non d ame      -9.266   6.883  71.534  0.00  0.00     0.036 H 
ATOM     79  H39 non d ame      -9.080   8.734  71.858  0.00  0.00     0.036 H 
ATOM     80  N5  non d ame     -11.641   7.492  72.993  0.00  0.00    -0.049 N 
ATOM     81  H40 non d ame      -9.691   6.732  73.394  0.00  0.00     0.075 H 
ATOM     82  H41 non d ame      -9.918   8.598  73.579  0.00  0.00     0.075 H 
ATOM     83  C28 non d ame     -12.080   7.981  71.518  0.00  0.00     0.193 C 
ATOM     84  H42 non d ame     -11.818   6.500  73.069  0.00  0.00     0.280 HD
ATOM     85  H43 non d ame     -12.035   8.127  73.672  0.00  0.00     0.280 HD
ATOM     86  H44 non d ame     -12.558   8.951  71.376  0.00  0.00     0.129 H 
ATOM     87  H37 non d ame     -11.182   9.181  70.539  0.00  0.00     0.046 H 
BRANCH  83  88
ATOM     88  O6  non d ame     -12.965   7.028  70.927  0.00  0.00    -0.369 OA
ATOM     89  H45 non d ame     -13.813   7.443  70.754  0.00  0.00     0.212 HD
ENDBRANCH  83  88
ENDBRANCH  72  75
ENDBRANCH  47  72
ENDBRANCH  45  47
ENDBRANCH   1  43
BRANCH   1  90
ATOM     90  C16 non d ame      -6.158   9.642  66.908  0.00  0.00    -0.035 C 
ATOM     91  H21 non d ame      -6.061   9.782  67.985  0.00  0.00     0.037 H 
ATOM     92  H22 non d ame      -5.486   8.964  66.385  0.00  0.00     0.037 H 
BRANCH  90  93
ATOM     93  C17 non d ame      -5.957  11.050  66.262  0.00  0.00    -0.059 C 
ATOM     94  H23 non d ame      -6.894  11.328  65.779  0.00  0.00     0.038 H 
BRANCH  93  95
ATOM     95  C18 non d ame      -5.625  12.145  67.325  0.00  0.00    -0.073 C 
ATOM     96  H24 non d ame      -5.905  13.125  66.936  0.00  0.00     0.028 H 
ATOM     97  H25 non d ame      -6.182  11.945  68.240  0.00  0.00     0.028 H 
ATOM     98  H26 non d ame      -4.557  12.131  67.540  0.00  0.00     0.028 H 
ENDBRANCH  93  95
BRANCH  93  99
ATOM     99  C19 non d ame      -4.882  11.002  65.173  0.00  0.00    -0.073 C 
ATOM    100  H27 non d ame      -3.905  10.860  65.634  0.00  0.00     0.028 H 
ATOM    101  H28 non d ame      -5.088  10.175  64.495  0.00  0.00     0.028 H 
ATOM    102  H29 non d ame      -4.888  11.939  64.617  0.00  0.00     0.028 H 
ENDBRANCH  93  99
ENDBRANCH  90  93
ENDBRANCH   1  90
TORSDOF 26
ENDMDL
MODEL 11
REMARK VINA RESULT:      -6.7      4.405     10.178
REMARK  26 active torsions:
REMARK  status: ('A' for Active; 'I' for Inactive)
REMARK    1  A    between atoms: C2_2  and  C3_3 
REMARK    2  A    between atoms: C4_6  and  C5_7 
REMARK       I    between atoms: C5_7  and  N2_9 
REMARK    3  A    between atoms: N2_9  and  C6_10 
REMARK    4  A    between atoms: C6_10  and  C7_11 
REMARK    5  A    between atoms: C6_10  and  C8_13 
REMARK       I    between atoms: C7_11  and  N3_14 
REMARK    6  A    between atoms: N3_14  and  C9_15 
REMARK    7  A    between atoms: C9_15  and  C10_16 
REMARK    8  A    between atoms: C9_15  and  C11_18 
REMARK       I    between atoms: C10_16  and  N4_21 
REMARK    9  A    between atoms: C11_18  and  C12_19 
REMARK   10  A    between atoms: C11_18  and  C13_20 
REMARK   11  A    between atoms: N4_21  and  C14_22 
REMARK   12  A    between atoms: C14_22  and  C15_23 
REMARK   13  A    between atoms: C14_22  and  C16_25 
REMARK       I    between atoms: C15_23  and  N6_40 
REMARK   14  A    between atoms: C16_25  and  C17_26 
REMARK   15  A    between atoms: C17_26  and  C18_27 
REMARK   16  A    between atoms: C17_26  and  C19_28 
REMARK   17  A    between atoms: C20_29  and  C21_30 
REMARK   18  A    between atoms: C20_29  and  C24_33 
REMARK   19  A    between atoms: C20_29  and  N6_40 
REMARK   20  A    between atoms: C21_30  and  C22_31 
REMARK   21  A    between atoms: C22_31  and  C23_32 
REMARK   22  A    between atoms: C23_32  and  O8_43 
REMARK   23  A    between atoms: C24_33  and  C25_34 
REMARK   24  A    between atoms: C28_38  and  O6_39 
REMARK   25  A    between atoms: C29_42  and  O8_43 
REMARK   26  A    between atoms: C29_42  and  C35_49 
ROOT
ATOM      1  C14 non d ame      -7.564   6.275  63.782  0.00  0.00     0.089 C 
ATOM      2  H20 non d ame      -7.983   6.097  62.792  0.00  0.00     0.087 H 
ENDROOT
BRANCH   1   3
ATOM      3  N4  non d ame      -7.284   7.699  63.891  0.00  0.00    -0.346 N 
ATOM      4  C10 non d ame      -7.479   8.606  62.702  0.00  0.00     0.241 C 
ATOM      5  O4  non d ame      -7.860   8.166  61.667  0.00  0.00    -0.271 OA
ATOM      6  H19 non d ame      -6.958   8.053  64.780  0.00  0.00     0.163 HD
BRANCH   4   7
ATOM      7  C9  non d ame      -7.190  10.078  62.833  0.00  0.00     0.092 C 
ATOM      8  H11 non d ame      -7.317  10.557  61.863  0.00  0.00     0.088 H 
BRANCH   7   9
ATOM      9  N3  non d ame      -8.161  10.688  63.747  0.00  0.00    -0.346 N 
ATOM     10  C7  non d ame      -9.386  11.246  63.230  0.00  0.00     0.240 C 
ATOM     11  O3  non d ame      -9.606  11.215  62.080  0.00  0.00    -0.271 OA
ATOM     12  H10 non d ame      -7.984  10.724  64.740  0.00  0.00     0.163 HD
BRANCH  10  13
ATOM     13  C6  non d ame     -10.414  11.896  64.207  0.00  0.00     0.086 C 
ATOM     14  H6  non d ame     -10.368  11.474  65.211  0.00  0.00     0.086 H 
BRANCH  13  15
ATOM     15  N2  non d ame     -10.109  13.312  64.338  0.00  0.00    -0.343 N 
ATOM     16  C5  non d ame     -10.403  13.999  65.597  0.00  0.00     0.273 C 
ATOM     17  O2  non d ame     -10.886  13.406  66.497  0.00  0.00    -0.266 OA
ATOM     18  H5  non d ame      -9.697  13.812  63.563  0.00  0.00     0.163 HD
BRANCH  16  19
ATOM     19  C4  non d ame     -10.084  15.495  65.751  0.00  0.00     0.154 A 
ATOM     20  C1  non d ame      -9.134  16.089  66.641  0.00  0.00    -0.017 A 
ATOM     21  C2  non d ame      -9.223  17.477  66.395  0.00  0.00     0.077 A 
ATOM     22  H1  non d ame      -8.479  15.590  67.356  0.00  0.00     0.091 H 
ATOM     23  O1  non d ame     -10.121  17.649  65.468  0.00  0.00    -0.218 OA
ATOM     24  N1  non d ame     -10.638  16.507  65.077  0.00  0.00    -0.123 NA
BRANCH  21  25
ATOM     25  C3  non d ame      -8.416  18.569  67.084  0.00  0.00    -0.029 C 
ATOM     26  H2  non d ame      -7.851  18.137  67.911  0.00  0.00     0.036 H 
ATOM     27  H3  non d ame      -7.728  19.018  66.368  0.00  0.00     0.036 H 
ATOM     28  H4  non d ame      -9.092  19.335  67.467  0.00  0.00     0.036 H 
ENDBRANCH  21  25
ENDBRANCH  16  19
ENDBRANCH  13  15
BRANCH  13  29
ATOM     29  C8  non d ame     -11.809  11.718  63.666  0.00  0.00    -0.049 C 
ATOM     30  H7  non d ame     -12.532  12.075  64.399  0.00  0.00     0.030 H 
ATOM     31  H8  non d ame     -11.916  12.288  62.742  0.00  0.00     0.030 H 
ATOM     32  H9  non d ame     -11.988  10.663  63.464  0.00  0.00     0.030 H 
ENDBRANCH  13  29
ENDBRANCH  10  13
ENDBRANCH   7   9
BRANCH   7  33
ATOM     33  C11 non d ame      -5.753  10.277  63.400  0.00  0.00    -0.033 C 
ATOM     34  H12 non d ame      -5.404  11.256  63.072  0.00  0.00     0.042 H 
BRANCH  33  35
ATOM     35  C12 non d ame      -5.752  10.276  64.960  0.00  0.00    -0.071 C 
ATOM     36  H13 non d ame      -5.217  11.154  65.323  0.00  0.00     0.028 H 
ATOM     37  H14 non d ame      -6.779  10.301  65.324  0.00  0.00     0.028 H 
ATOM     38  H15 non d ame      -5.260   9.374  65.322  0.00  0.00     0.028 H 
ENDBRANCH  33  35
BRANCH  33  39
ATOM     39  C13 non d ame      -4.775   9.199  62.832  0.00  0.00    -0.071 C 
ATOM     40  H16 non d ame      -4.910   8.264  63.375  0.00  0.00     0.028 H 
ATOM     41  H17 non d ame      -4.984   9.039  61.774  0.00  0.00     0.028 H 
ATOM     42  H18 non d ame      -3.748   9.543  62.952  0.00  0.00     0.028 H 
ENDBRANCH  33  39
ENDBRANCH   7  33
ENDBRANCH   4   7
ENDBRANCH   1   3
BRANCH   1  43
ATOM     43  C15 non d ame      -8.549   5.876  64.918  0.00  0.00     0.240 C 
ATOM     44  O5  non d ame      -8.891   4.743  65.033  0.00  0.00    -0.271 OA
ATOM     45  N6  non d ame      -9.059   6.904  65.869  0.00  0.00    -0.355 N 
ATOM     46  H46 non d ame      -8.773   7.869  65.784  0.00  0.00     0.162 HD
BRANCH  45  47
ATOM     47  C20 non d ame      -9.994   6.508  66.944  0.00  0.00     0.013 C 
ATOM     48  H30 non d ame     -10.648   5.730  66.550  0.00  0.00     0.072 H 
BRANCH  47  49
ATOM     49  C21 non d ame     -10.814   7.709  67.361  0.00  0.00    -0.038 C 
ATOM     50  H31 non d ame     -11.851   7.445  67.153  0.00  0.00     0.036 H 
ATOM     51  H32 non d ame     -10.503   7.936  68.382  0.00  0.00     0.036 H 
BRANCH  49  52
ATOM     52  C22 non d ame     -10.505   8.967  66.521  0.00  0.00     0.018 C 
ATOM     53  H33 non d ame      -9.997   8.607  65.626  0.00  0.00     0.048 H 
ATOM     54  H34 non d ame     -11.451   9.502  66.433  0.00  0.00     0.048 H 
BRANCH  52  55
ATOM     55  C23 non d ame      -9.517   9.950  67.208  0.00  0.00     0.259 C 
ATOM     56  O7  non d ame      -8.394  10.037  66.831  0.00  0.00    -0.265 OA
BRANCH  55  57
ATOM     57  O8  non d ame      -9.966  10.739  68.303  0.00  0.00    -0.317 OA
BRANCH  57  58
ATOM     58  C29 non d ame      -9.526  10.267  69.580  0.00  0.00     0.052 C 
ATOM     59  H47 non d ame      -8.944   9.369  69.379  0.00  0.00     0.082 H 
ATOM     60  H48 non d ame      -9.056  11.124  70.064  0.00  0.00     0.082 H 
BRANCH  58  61
ATOM     61  C35 non d ame     -10.780   9.867  70.401  0.00  0.00    -0.034 A 
ATOM     62  C30 non d ame     -11.916  10.669  70.373  0.00  0.00    -0.075 A 
ATOM     63  C31 non d ame     -13.043  10.309  71.111  0.00  0.00    -0.082 A 
ATOM     64  H49 non d ame     -11.924  11.579  69.774  0.00  0.00     0.084 H 
ATOM     65  C32 non d ame     -13.030   9.143  71.880  0.00  0.00    -0.083 A 
ATOM     66  H50 non d ame     -13.932  10.939  71.086  0.00  0.00     0.083 H 
ATOM     67  C33 non d ame     -11.893   8.347  71.908  0.00  0.00    -0.082 A 
ATOM     68  H51 non d ame     -13.907   8.854  72.460  0.00  0.00     0.083 H 
ATOM     69  C34 non d ame     -10.766   8.702  71.170  0.00  0.00    -0.075 A 
ATOM     70  H52 non d ame     -11.885   7.438  72.511  0.00  0.00     0.083 H 
ATOM     71  H53 non d ame      -9.876   8.070  71.196  0.00  0.00     0.084 H 
ENDBRANCH  58  61
ENDBRANCH  57  58
ENDBRANCH  55  57
ENDBRANCH  52  55
ENDBRANCH  49  52
ENDBRANCH  47  49
BRANCH  47  72
ATOM     72  C24 non d ame      -9.209   5.985  68.144  0.00  0.00    -0.039 C 
ATOM     73  H35 non d ame      -8.293   5.564  67.730  0.00  0.00     0.036 H 
ATOM     74  H36 non d ame      -9.158   6.819  68.844  0.00  0.00     0.036 H 
BRANCH  72  75
ATOM     75  C25 non d ame      -9.984   4.794  68.885  0.00  0.00    -0.001 C 
ATOM     76  C26 non d ame     -10.084   5.106  70.496  0.00  0.00    -0.035 C 
ATOM     77  C27 non d ame      -9.635   4.027  71.179  0.00  0.00     0.085 C 
ATOM     78  H38 non d ame      -9.379   5.892  70.768  0.00  0.00     0.036 H 
ATOM     79  H39 non d ame     -11.129   5.184  70.798  0.00  0.00     0.036 H 
ATOM     80  N5  non d ame      -8.935   3.134  70.184  0.00  0.00    -0.049 N 
ATOM     81  H40 non d ame      -8.902   4.414  71.888  0.00  0.00     0.075 H 
ATOM     82  H41 non d ame     -10.529   3.520  71.542  0.00  0.00     0.075 H 
ATOM     83  C28 non d ame      -9.372   3.667  68.724  0.00  0.00     0.193 C 
ATOM     84  H42 non d ame      -7.945   3.296  70.302  0.00  0.00     0.280 HD
ATOM     85  H43 non d ame      -9.313   2.207  70.314  0.00  0.00     0.280 HD
ATOM     86  H44 non d ame     -10.110   3.123  68.134  0.00  0.00     0.129 H 
ATOM     87  H37 non d ame     -10.907   4.521  68.374  0.00  0.00     0.046 H 
BRANCH  83  88
ATOM     88  O6  non d ame      -8.225   3.792  67.882  0.00  0.00    -0.369 OA
ATOM     89  H45 non d ame      -8.297   4.594  67.360  0.00  0.00     0.212 HD
ENDBRANCH  83  88
ENDBRANCH  72  75
ENDBRANCH  47  72
ENDBRANCH  45  47
ENDBRANCH   1  43
BRANCH   1  90
ATOM     90  C16 non d ame      -6.264   5.500  63.937  0.00  0.00    -0.035 C 
ATOM     91  H21 non d ame      -6.551   4.448  63.913  0.00  0.00     0.037 H 
ATOM     92  H22 non d ame      -5.597   5.900  63.174  0.00  0.00     0.037 H 
BRANCH  90  93
ATOM     93  C17 non d ame      -5.556   5.732  65.310  0.00  0.00    -0.059 C 
ATOM     94  H23 non d ame      -6.193   6.388  65.903  0.00  0.00     0.038 H 
BRANCH  93  95
ATOM     95  C18 non d ame      -5.365   4.404  66.108  0.00  0.00    -0.073 C 
ATOM     96  H24 non d ame      -6.282   4.170  66.649  0.00  0.00     0.028 H 
ATOM     97  H25 non d ame      -5.136   3.594  65.415  0.00  0.00     0.028 H 
ATOM     98  H26 non d ame      -4.544   4.519  66.815  0.00  0.00     0.028 H 
ENDBRANCH  93  95
BRANCH  93  99
ATOM     99  C19 non d ame      -4.218   6.452  65.119  0.00  0.00    -0.073 C 
ATOM    100  H27 non d ame      -4.142   6.810  64.092  0.00  0.00     0.028 H 
ATOM    101  H28 non d ame      -4.159   7.297  65.805  0.00  0.00     0.028 H 
ATOM    102  H29 non d ame      -3.402   5.760  65.324  0.00  0.00     0.028 H 
ENDBRANCH  93  99
ENDBRANCH  90  93
ENDBRANCH   1  90
TORSDOF 26
ENDMDL
MODEL 12
REMARK VINA RESULT:      -6.7      3.413      9.460
REMARK  26 active torsions:
REMARK  status: ('A' for Active; 'I' for Inactive)
REMARK    1  A    between atoms: C2_2  and  C3_3 
REMARK    2  A    between atoms: C4_6  and  C5_7 
REMARK       I    between atoms: C5_7  and  N2_9 
REMARK    3  A    between atoms: N2_9  and  C6_10 
REMARK    4  A    between atoms: C6_10  and  C7_11 
REMARK    5  A    between atoms: C6_10  and  C8_13 
REMARK       I    between atoms: C7_11  and  N3_14 
REMARK    6  A    between atoms: N3_14  and  C9_15 
REMARK    7  A    between atoms: C9_15  and  C10_16 
REMARK    8  A    between atoms: C9_15  and  C11_18 
REMARK       I    between atoms: C10_16  and  N4_21 
REMARK    9  A    between atoms: C11_18  and  C12_19 
REMARK   10  A    between atoms: C11_18  and  C13_20 
REMARK   11  A    between atoms: N4_21  and  C14_22 
REMARK   12  A    between atoms: C14_22  and  C15_23 
REMARK   13  A    between atoms: C14_22  and  C16_25 
REMARK       I    between atoms: C15_23  and  N6_40 
REMARK   14  A    between atoms: C16_25  and  C17_26 
REMARK   15  A    between atoms: C17_26  and  C18_27 
REMARK   16  A    between atoms: C17_26  and  C19_28 
REMARK   17  A    between atoms: C20_29  and  C21_30 
REMARK   18  A    between atoms: C20_29  and  C24_33 
REMARK   19  A    between atoms: C20_29  and  N6_40 
REMARK   20  A    between atoms: C21_30  and  C22_31 
REMARK   21  A    between atoms: C22_31  and  C23_32 
REMARK   22  A    between atoms: C23_32  and  O8_43 
REMARK   23  A    between atoms: C24_33  and  C25_34 
REMARK   24  A    between atoms: C28_38  and  O6_39 
REMARK   25  A    between atoms: C29_42  and  O8_43 
REMARK   26  A    between atoms: C29_42  and  C35_49 
ROOT
ATOM      1  C14 non d ame      -6.808  13.040  67.839  0.00  0.00     0.089 C 
ATOM      2  H20 non d ame      -6.038  12.916  67.077  0.00  0.00     0.087 H 
ENDROOT
BRANCH   1   3
ATOM      3  N4  non d ame      -7.112  14.461  67.928  0.00  0.00    -0.346 N 
ATOM      4  C10 non d ame      -6.047  15.488  67.635  0.00  0.00     0.241 C 
ATOM      5  O4  non d ame      -4.951  15.146  67.332  0.00  0.00    -0.271 OA
ATOM      6  H19 non d ame      -8.050  14.730  68.190  0.00  0.00     0.163 HD
BRANCH   4   7
ATOM      7  C9  non d ame      -6.380  16.953  67.726  0.00  0.00     0.092 C 
ATOM      8  H11 non d ame      -6.046  17.455  66.818  0.00  0.00     0.088 H 
BRANCH   7   9
ATOM      9  N3  non d ame      -7.835  17.120  67.801  0.00  0.00    -0.346 N 
ATOM     10  C7  non d ame      -8.568  17.589  66.651  0.00  0.00     0.240 C 
ATOM     11  O3  non d ame      -8.002  17.838  65.657  0.00  0.00    -0.271 OA
ATOM     12  H10 non d ame      -8.336  16.911  68.653  0.00  0.00     0.163 HD
BRANCH  10  13
ATOM     13  C6  non d ame     -10.115  17.768  66.739  0.00  0.00     0.086 C 
ATOM     14  H6  non d ame     -10.653  17.149  66.020  0.00  0.00     0.086 H 
BRANCH  13  15
ATOM     15  N2  non d ame     -10.562  17.357  68.059  0.00  0.00    -0.343 N 
ATOM     16  C5  non d ame     -11.218  16.057  68.226  0.00  0.00     0.273 C 
ATOM     17  O2  non d ame     -11.382  15.352  67.292  0.00  0.00    -0.266 OA
ATOM     18  H5  non d ame     -10.420  17.966  68.851  0.00  0.00     0.163 HD
BRANCH  16  19
ATOM     19  C4  non d ame     -11.694  15.609  69.616  0.00  0.00     0.154 A 
ATOM     20  C1  non d ame     -12.380  14.396  69.945  0.00  0.00    -0.017 A 
ATOM     21  C2  non d ame     -12.590  14.464  71.341  0.00  0.00     0.077 A 
ATOM     22  H1  non d ame     -12.680  13.590  69.275  0.00  0.00     0.091 H 
ATOM     23  O1  non d ame     -12.079  15.587  71.755  0.00  0.00    -0.218 OA
ATOM     24  N1  non d ame     -11.552  16.273  70.766  0.00  0.00    -0.123 NA
BRANCH  21  25
ATOM     25  C3  non d ame     -13.283  13.416  72.200  0.00  0.00    -0.029 C 
ATOM     26  H2  non d ame     -12.852  12.435  71.997  0.00  0.00     0.036 H 
ATOM     27  H3  non d ame     -13.146  13.662  73.253  0.00  0.00     0.036 H 
ATOM     28  H4  non d ame     -14.348  13.400  71.967  0.00  0.00     0.036 H 
ENDBRANCH  21  25
ENDBRANCH  16  19
ENDBRANCH  13  15
BRANCH  13  29
ATOM     29  C8  non d ame     -10.471  19.212  66.500  0.00  0.00    -0.049 C 
ATOM     30  H7  non d ame     -11.430  19.434  66.970  0.00  0.00     0.030 H 
ATOM     31  H8  non d ame      -9.700  19.853  66.930  0.00  0.00     0.030 H 
ATOM     32  H9  non d ame     -10.542  19.397  65.429  0.00  0.00     0.030 H 
ENDBRANCH  13  29
ENDBRANCH  10  13
ENDBRANCH   7   9
BRANCH   7  33
ATOM     33  C11 non d ame      -5.725  17.556  69.003  0.00  0.00    -0.033 C 
ATOM     34  H12 non d ame      -4.671  17.725  68.783  0.00  0.00     0.042 H 
BRANCH  33  35
ATOM     35  C12 non d ame      -6.355  18.936  69.369  0.00  0.00    -0.071 C 
ATOM     36  H13 non d ame      -6.540  19.504  68.457  0.00  0.00     0.028 H 
ATOM     37  H14 non d ame      -7.297  18.777  69.894  0.00  0.00     0.028 H 
ATOM     38  H15 non d ame      -5.670  19.489  70.010  0.00  0.00     0.028 H 
ENDBRANCH  33  35
BRANCH  33  39
ATOM     39  C13 non d ame      -5.814  16.557  70.202  0.00  0.00    -0.071 C 
ATOM     40  H16 non d ame      -5.842  17.114  71.137  0.00  0.00     0.028 H 
ATOM     41  H17 non d ame      -6.718  15.956  70.108  0.00  0.00     0.028 H 
ATOM     42  H18 non d ame      -4.941  15.905  70.194  0.00  0.00     0.028 H 
ENDBRANCH  33  39
ENDBRANCH   7  33
ENDBRANCH   4   7
ENDBRANCH   1   3
BRANCH   1  43
ATOM     43  C15 non d ame      -8.115  12.275  67.483  0.00  0.00     0.240 C 
ATOM     44  O5  non d ame      -9.164  12.691  67.859  0.00  0.00    -0.271 OA
ATOM     45  N6  non d ame      -8.061  11.030  66.667  0.00  0.00    -0.355 N 
ATOM     46  H46 non d ame      -7.177  10.669  66.338  0.00  0.00     0.162 HD
BRANCH  45  47
ATOM     47  C20 non d ame      -9.313  10.315  66.336  0.00  0.00     0.013 C 
ATOM     48  H30 non d ame     -10.109  10.731  66.953  0.00  0.00     0.072 H 
BRANCH  47  49
ATOM     49  C21 non d ame      -9.143   8.843  66.638  0.00  0.00    -0.038 C 
ATOM     50  H31 non d ame      -8.618   8.425  65.778  0.00  0.00     0.036 H 
ATOM     51  H32 non d ame      -8.691   8.796  67.629  0.00  0.00     0.036 H 
BRANCH  49  52
ATOM     52  C22 non d ame     -10.488   8.092  66.736  0.00  0.00     0.018 C 
ATOM     53  H33 non d ame     -11.147   8.740  67.316  0.00  0.00     0.048 H 
ATOM     54  H34 non d ame     -10.751   7.822  65.713  0.00  0.00     0.048 H 
BRANCH  52  55
ATOM     55  C23 non d ame     -10.402   6.755  67.524  0.00  0.00     0.259 C 
ATOM     56  O7  non d ame     -10.319   6.759  68.709  0.00  0.00    -0.265 OA
BRANCH  55  57
ATOM     57  O8  non d ame     -10.409   5.524  66.812  0.00  0.00    -0.317 OA
BRANCH  57  58
ATOM     58  C29 non d ame      -9.118   4.926  66.668  0.00  0.00     0.052 C 
ATOM     59  H47 non d ame      -8.467   5.456  67.362  0.00  0.00     0.082 H 
ATOM     60  H48 non d ame      -9.276   3.853  66.780  0.00  0.00     0.082 H 
BRANCH  58  61
ATOM     61  C35 non d ame      -8.622   5.200  65.223  0.00  0.00    -0.034 A 
ATOM     62  C30 non d ame      -9.355   4.738  64.136  0.00  0.00    -0.075 A 
ATOM     63  C31 non d ame      -8.910   4.983  62.838  0.00  0.00    -0.082 A 
ATOM     64  H49 non d ame     -10.279   4.183  64.300  0.00  0.00     0.084 H 
ATOM     65  C32 non d ame      -7.724   5.693  62.630  0.00  0.00    -0.083 A 
ATOM     66  H50 non d ame      -9.488   4.621  61.988  0.00  0.00     0.083 H 
ATOM     67  C33 non d ame      -6.993   6.149  63.718  0.00  0.00    -0.082 A 
ATOM     68  H51 non d ame      -7.368   5.889  61.618  0.00  0.00     0.083 H 
ATOM     69  C34 non d ame      -7.436   5.908  65.017  0.00  0.00    -0.075 A 
ATOM     70  H52 non d ame      -6.067   6.701  63.552  0.00  0.00     0.083 H 
ATOM     71  H53 non d ame      -6.857   6.271  65.867  0.00  0.00     0.084 H 
ENDBRANCH  58  61
ENDBRANCH  57  58
ENDBRANCH  55  57
ENDBRANCH  52  55
ENDBRANCH  49  52
ENDBRANCH  47  49
BRANCH  47  72
ATOM     72  C24 non d ame      -9.637  10.499  64.856  0.00  0.00    -0.039 C 
ATOM     73  H35 non d ame      -8.677  10.454  64.341  0.00  0.00     0.036 H 
ATOM     74  H36 non d ame     -10.409   9.761  64.633  0.00  0.00     0.036 H 
BRANCH  72  75
ATOM     75  C25 non d ame     -10.264  11.943  64.561  0.00  0.00    -0.001 C 
ATOM     76  C26 non d ame     -11.635  12.150  65.445  0.00  0.00    -0.035 C 
ATOM     77  C27 non d ame     -12.632  12.548  64.619  0.00  0.00     0.085 C 
ATOM     78  H38 non d ame     -11.986  11.188  65.821  0.00  0.00     0.036 H 
ATOM     79  H39 non d ame     -11.517  12.991  66.128  0.00  0.00     0.036 H 
ATOM     80  N5  non d ame     -12.153  12.319  63.206  0.00  0.00    -0.049 N 
ATOM     81  H40 non d ame     -13.467  11.878  64.825  0.00  0.00     0.075 H 
ATOM     82  H41 non d ame     -12.738  13.620  64.788  0.00  0.00     0.075 H 
ATOM     83  C28 non d ame     -10.559  12.078  63.311  0.00  0.00     0.193 C 
ATOM     84  H42 non d ame     -12.587  11.462  62.893  0.00  0.00     0.280 HD
ATOM     85  H43 non d ame     -12.315  13.179  62.705  0.00  0.00     0.280 HD
ATOM     86  H44 non d ame      -9.861  12.865  63.026  0.00  0.00     0.129 H 
ATOM     87  H37 non d ame      -9.518  12.735  64.612  0.00  0.00     0.046 H 
BRANCH  83  88
ATOM     88  O6  non d ame     -10.182  10.936  62.541  0.00  0.00    -0.369 OA
ATOM     89  H45 non d ame     -10.545  10.144  62.944  0.00  0.00     0.212 HD
ENDBRANCH  83  88
ENDBRANCH  72  75
ENDBRANCH  47  72
ENDBRANCH  45  47
ENDBRANCH   1  43
BRANCH   1  90
ATOM     90  C16 non d ame      -6.283  12.559  69.183  0.00  0.00    -0.035 C 
ATOM     91  H21 non d ame      -6.220  13.453  69.804  0.00  0.00     0.037 H 
ATOM     92  H22 non d ame      -6.941  11.741  69.473  0.00  0.00     0.037 H 
BRANCH  90  93
ATOM     93  C17 non d ame      -4.841  11.966  69.116  0.00  0.00    -0.059 C 
ATOM     94  H23 non d ame      -4.850  11.015  69.648  0.00  0.00     0.038 H 
BRANCH  93  95
ATOM     95  C18 non d ame      -4.384  11.687  67.649  0.00  0.00    -0.073 C 
ATOM     96  H24 non d ame      -3.343  11.361  67.648  0.00  0.00     0.028 H 
ATOM     97  H25 non d ame      -5.009  10.906  67.216  0.00  0.00     0.028 H 
ATOM     98  H26 non d ame      -4.480  12.598  67.059  0.00  0.00     0.028 H 
ENDBRANCH  93  95
BRANCH  93  99
ATOM     99  C19 non d ame      -3.842  12.877  69.835  0.00  0.00    -0.073 C 
ATOM    100  H27 non d ame      -4.382  13.658  70.370  0.00  0.00     0.028 H 
ATOM    101  H28 non d ame      -3.257  12.289  70.542  0.00  0.00     0.028 H 
ATOM    102  H29 non d ame      -3.175  13.333  69.103  0.00  0.00     0.028 H 
ENDBRANCH  93  99
ENDBRANCH  90  93
ENDBRANCH   1  90
TORSDOF 26
ENDMDL
MODEL 13
REMARK VINA RESULT:      -6.7      3.716      6.589
REMARK  26 active torsions:
REMARK  status: ('A' for Active; 'I' for Inactive)
REMARK    1  A    between atoms: C2_2  and  C3_3 
REMARK    2  A    between atoms: C4_6  and  C5_7 
REMARK       I    between atoms: C5_7  and  N2_9 
REMARK    3  A    between atoms: N2_9  and  C6_10 
REMARK    4  A    between atoms: C6_10  and  C7_11 
REMARK    5  A    between atoms: C6_10  and  C8_13 
REMARK       I    between atoms: C7_11  and  N3_14 
REMARK    6  A    between atoms: N3_14  and  C9_15 
REMARK    7  A    between atoms: C9_15  and  C10_16 
REMARK    8  A    between atoms: C9_15  and  C11_18 
REMARK       I    between atoms: C10_16  and  N4_21 
REMARK    9  A    between atoms: C11_18  and  C12_19 
REMARK   10  A    between atoms: C11_18  and  C13_20 
REMARK   11  A    between atoms: N4_21  and  C14_22 
REMARK   12  A    between atoms: C14_22  and  C15_23 
REMARK   13  A    between atoms: C14_22  and  C16_25 
REMARK       I    between atoms: C15_23  and  N6_40 
REMARK   14  A    between atoms: C16_25  and  C17_26 
REMARK   15  A    between atoms: C17_26  and  C18_27 
REMARK   16  A    between atoms: C17_26  and  C19_28 
REMARK   17  A    between atoms: C20_29  and  C21_30 
REMARK   18  A    between atoms: C20_29  and  C24_33 
REMARK   19  A    between atoms: C20_29  and  N6_40 
REMARK   20  A    between atoms: C21_30  and  C22_31 
REMARK   21  A    between atoms: C22_31  and  C23_32 
REMARK   22  A    between atoms: C23_32  and  O8_43 
REMARK   23  A    between atoms: C24_33  and  C25_34 
REMARK   24  A    between atoms: C28_38  and  O6_39 
REMARK   25  A    between atoms: C29_42  and  O8_43 
REMARK   26  A    between atoms: C29_42  and  C35_49 
ROOT
ATOM      1  C14 non d ame     -10.862   8.733  69.669  0.00  0.00     0.089 C 
ATOM      2  H20 non d ame     -11.816   8.215  69.575  0.00  0.00     0.087 H 
ENDROOT
BRANCH   1   3
ATOM      3  N4  non d ame      -9.815   7.723  69.703  0.00  0.00    -0.346 N 
ATOM      4  C10 non d ame     -10.122   6.295  69.327  0.00  0.00     0.241 C 
ATOM      5  O4  non d ame     -11.221   5.983  69.002  0.00  0.00    -0.271 OA
ATOM      6  H19 non d ame      -8.888   8.008  69.985  0.00  0.00     0.163 HD
BRANCH   4   7
ATOM      7  C9  non d ame      -9.026   5.263  69.363  0.00  0.00     0.092 C 
ATOM      8  H11 non d ame      -9.348   4.378  68.814  0.00  0.00     0.088 H 
BRANCH   7   9
ATOM      9  N3  non d ame      -7.839   5.786  68.680  0.00  0.00    -0.346 N 
ATOM     10  C7  non d ame      -7.510   5.330  67.352  0.00  0.00     0.240 C 
ATOM     11  O3  non d ame      -8.190   4.540  66.818  0.00  0.00    -0.271 OA
ATOM     12  H10 non d ame      -7.243   6.467  69.129  0.00  0.00     0.163 HD
BRANCH  10  13
ATOM     13  C6  non d ame      -6.244   5.889  66.633  0.00  0.00     0.086 C 
ATOM     14  H6  non d ame      -5.729   5.134  66.037  0.00  0.00     0.086 H 
BRANCH  13  15
ATOM     15  N2  non d ame      -6.649   6.939  65.713  0.00  0.00    -0.343 N 
ATOM     16  C5  non d ame      -6.732   6.649  64.280  0.00  0.00     0.273 C 
ATOM     17  O2  non d ame      -6.467   5.570  63.877  0.00  0.00    -0.266 OA
ATOM     18  H5  non d ame      -6.871   7.858  66.065  0.00  0.00     0.163 HD
BRANCH  16  19
ATOM     19  C4  non d ame      -7.161   7.749  63.296  0.00  0.00     0.154 A 
ATOM     20  C1  non d ame      -6.666   9.090  63.228  0.00  0.00    -0.017 A 
ATOM     21  C2  non d ame      -7.377   9.687  62.163  0.00  0.00     0.077 A 
ATOM     22  H1  non d ame      -5.907   9.558  63.856  0.00  0.00     0.091 H 
ATOM     23  O1  non d ame      -8.182   8.785  61.681  0.00  0.00    -0.218 OA
ATOM     24  N1  non d ame      -8.075   7.646  62.326  0.00  0.00    -0.123 NA
BRANCH  21  25
ATOM     25  C3  non d ame      -7.226  11.119  61.670  0.00  0.00    -0.029 C 
ATOM     26  H2  non d ame      -7.976  11.750  62.148  0.00  0.00     0.036 H 
ATOM     27  H3  non d ame      -6.231  11.486  61.920  0.00  0.00     0.036 H 
ATOM     28  H4  non d ame      -7.362  11.149  60.589  0.00  0.00     0.036 H 
ENDBRANCH  21  25
ENDBRANCH  16  19
ENDBRANCH  13  15
BRANCH  13  29
ATOM     29  C8  non d ame      -5.284   6.441  67.655  0.00  0.00    -0.049 C 
ATOM     30  H7  non d ame      -5.428   5.927  68.605  0.00  0.00     0.030 H 
ATOM     31  H8  non d ame      -4.260   6.288  67.311  0.00  0.00     0.030 H 
ATOM     32  H9  non d ame      -5.467   7.506  67.787  0.00  0.00     0.030 H 
ENDBRANCH  13  29
ENDBRANCH  10  13
ENDBRANCH   7   9
BRANCH   7  33
ATOM     33  C11 non d ame      -8.669   4.936  70.842  0.00  0.00    -0.033 C 
ATOM     34  H12 non d ame      -8.472   5.881  71.349  0.00  0.00     0.042 H 
BRANCH  33  35
ATOM     35  C12 non d ame      -9.863   4.251  71.577  0.00  0.00    -0.071 C 
ATOM     36  H13 non d ame     -10.260   4.927  72.334  0.00  0.00     0.028 H 
ATOM     37  H14 non d ame     -10.645   4.013  70.857  0.00  0.00     0.028 H 
ATOM     38  H15 non d ame      -9.517   3.334  72.054  0.00  0.00     0.028 H 
ENDBRANCH  33  35
BRANCH  33  39
ATOM     39  C13 non d ame      -7.376   4.064  70.926  0.00  0.00    -0.071 C 
ATOM     40  H16 non d ame      -7.649   3.009  70.931  0.00  0.00     0.028 H 
ATOM     41  H17 non d ame      -6.741   4.271  70.064  0.00  0.00     0.028 H 
ATOM     42  H18 non d ame      -6.835   4.303  71.841  0.00  0.00     0.028 H 
ENDBRANCH  33  39
ENDBRANCH   7  33
ENDBRANCH   4   7
ENDBRANCH   1   3
BRANCH   1  43
ATOM     43  C15 non d ame     -10.590   9.686  68.470  0.00  0.00     0.240 C 
ATOM     44  O5  non d ame     -10.470   9.239  67.374  0.00  0.00    -0.271 OA
ATOM     45  N6  non d ame     -10.488  11.158  68.685  0.00  0.00    -0.355 N 
ATOM     46  H46 non d ame     -10.593  11.550  69.610  0.00  0.00     0.162 HD
BRANCH  45  47
ATOM     47  C20 non d ame     -10.231  12.051  67.535  0.00  0.00     0.013 C 
ATOM     48  H30 non d ame      -9.751  11.461  66.754  0.00  0.00     0.072 H 
BRANCH  47  49
ATOM     49  C21 non d ame      -9.317  13.175  67.968  0.00  0.00    -0.038 C 
ATOM     50  H31 non d ame      -9.563  13.368  69.013  0.00  0.00     0.036 H 
ATOM     51  H32 non d ame      -8.311  12.858  67.693  0.00  0.00     0.036 H 
BRANCH  49  52
ATOM     52  C22 non d ame      -9.583  14.491  67.207  0.00  0.00     0.018 C 
ATOM     53  H33 non d ame      -8.640  14.749  66.724  0.00  0.00     0.048 H 
ATOM     54  H34 non d ame     -10.472  14.308  66.602  0.00  0.00     0.048 H 
BRANCH  52  55
ATOM     55  C23 non d ame      -9.932  15.690  68.132  0.00  0.00     0.259 C 
ATOM     56  O7  non d ame      -9.123  16.530  68.360  0.00  0.00    -0.265 OA
BRANCH  55  57
ATOM     57  O8  non d ame     -11.226  15.767  68.716  0.00  0.00    -0.317 OA
BRANCH  57  58
ATOM     58  C29 non d ame     -11.238  16.315  70.037  0.00  0.00     0.052 C 
ATOM     59  H47 non d ame     -10.201  16.311  70.369  0.00  0.00     0.082 H 
ATOM     60  H48 non d ame     -11.781  17.258  69.960  0.00  0.00     0.082 H 
BRANCH  58  61
ATOM     61  C35 non d ame     -12.050  15.355  70.947  0.00  0.00    -0.034 A 
ATOM     62  C30 non d ame     -12.550  15.805  72.164  0.00  0.00    -0.075 A 
ATOM     63  C31 non d ame     -13.279  14.943  72.981  0.00  0.00    -0.082 A 
ATOM     64  H49 non d ame     -12.372  16.834  72.477  0.00  0.00     0.084 H 
ATOM     65  C32 non d ame     -13.504  13.624  72.578  0.00  0.00    -0.083 A 
ATOM     66  H50 non d ame     -13.671  15.300  73.934  0.00  0.00     0.083 H 
ATOM     67  C33 non d ame     -13.000  13.177  71.364  0.00  0.00    -0.082 A 
ATOM     68  H51 non d ame     -14.073  12.943  73.211  0.00  0.00     0.083 H 
ATOM     69  C34 non d ame     -12.273  14.037  70.543  0.00  0.00    -0.075 A 
ATOM     70  H52 non d ame     -13.176  12.147  71.054  0.00  0.00     0.083 H 
ATOM     71  H53 non d ame     -11.881  13.679  69.590  0.00  0.00     0.084 H 
ENDBRANCH  58  61
ENDBRANCH  57  58
ENDBRANCH  55  57
ENDBRANCH  52  55
ENDBRANCH  49  52
ENDBRANCH  47  49
BRANCH  47  72
ATOM     72  C24 non d ame     -11.549  12.631  67.027  0.00  0.00    -0.039 C 
ATOM     73  H35 non d ame     -12.311  12.269  67.717  0.00  0.00     0.036 H 
ATOM     74  H36 non d ame     -11.374  13.703  66.923  0.00  0.00     0.036 H 
BRANCH  72  75
ATOM     75  C25 non d ame     -11.922  12.071  65.573  0.00  0.00    -0.001 C 
ATOM     76  C26 non d ame     -10.558  11.604  64.784  0.00  0.00    -0.035 C 
ATOM     77  C27 non d ame     -10.539  12.185  63.562  0.00  0.00     0.085 C 
ATOM     78  H38 non d ame      -9.680  12.021  65.278  0.00  0.00     0.036 H 
ATOM     79  H39 non d ame     -10.601  10.538  64.560  0.00  0.00     0.036 H 
ATOM     80  N5  non d ame     -11.598  13.261  63.568  0.00  0.00    -0.049 N 
ATOM     81  H40 non d ame      -9.558  12.653  63.476  0.00  0.00     0.075 H 
ATOM     82  H41 non d ame     -10.833  11.402  62.863  0.00  0.00     0.075 H 
ATOM     83  C28 non d ame     -12.517  12.971  64.864  0.00  0.00     0.193 C 
ATOM     84  H42 non d ame     -11.115  14.137  63.706  0.00  0.00     0.280 HD
ATOM     85  H43 non d ame     -12.157  13.118  62.740  0.00  0.00     0.280 HD
ATOM     86  H44 non d ame     -13.503  12.519  64.754  0.00  0.00     0.129 H 
ATOM     87  H37 non d ame     -12.746  11.357  65.605  0.00  0.00     0.046 H 
BRANCH  83  88
ATOM     88  O6  non d ame     -12.731  14.180  65.595  0.00  0.00    -0.369 OA
ATOM     89  H45 non d ame     -13.672  14.303  65.741  0.00  0.00     0.212 HD
ENDBRANCH  83  88
ENDBRANCH  72  75
ENDBRANCH  47  72
ENDBRANCH  45  47
ENDBRANCH   1  43
BRANCH   1  90
ATOM     90  C16 non d ame     -10.832   9.524  70.968  0.00  0.00    -0.035 C 
ATOM     91  H21 non d ame      -9.963   9.152  71.511  0.00  0.00     0.037 H 
ATOM     92  H22 non d ame     -10.880  10.570  70.669  0.00  0.00     0.037 H 
BRANCH  90  93
ATOM     93  C17 non d ame     -12.069   9.268  71.885  0.00  0.00    -0.059 C 
ATOM     94  H23 non d ame     -12.002   9.954  72.730  0.00  0.00     0.038 H 
BRANCH  93  95
ATOM     95  C18 non d ame     -13.418   9.548  71.150  0.00  0.00    -0.073 C 
ATOM     96  H24 non d ame     -13.270   9.456  70.073  0.00  0.00     0.028 H 
ATOM     97  H25 non d ame     -14.166   8.826  71.476  0.00  0.00     0.028 H 
ATOM     98  H26 non d ame     -13.759  10.556  71.386  0.00  0.00     0.028 H 
ENDBRANCH  93  95
BRANCH  93  99
ATOM     99  C19 non d ame     -12.043   7.846  72.453  0.00  0.00    -0.073 C 
ATOM    100  H27 non d ame     -12.959   7.327  72.173  0.00  0.00     0.028 H 
ATOM    101  H28 non d ame     -11.183   7.310  72.051  0.00  0.00     0.028 H 
ATOM    102  H29 non d ame     -11.969   7.891  73.539  0.00  0.00     0.028 H 
ENDBRANCH  93  99
ENDBRANCH  90  93
ENDBRANCH   1  90
TORSDOF 26
ENDMDL
MODEL 14
REMARK VINA RESULT:      -6.7      3.300      8.672
REMARK  26 active torsions:
REMARK  status: ('A' for Active; 'I' for Inactive)
REMARK    1  A    between atoms: C2_2  and  C3_3 
REMARK    2  A    between atoms: C4_6  and  C5_7 
REMARK       I    between atoms: C5_7  and  N2_9 
REMARK    3  A    between atoms: N2_9  and  C6_10 
REMARK    4  A    between atoms: C6_10  and  C7_11 
REMARK    5  A    between atoms: C6_10  and  C8_13 
REMARK       I    between atoms: C7_11  and  N3_14 
REMARK    6  A    between atoms: N3_14  and  C9_15 
REMARK    7  A    between atoms: C9_15  and  C10_16 
REMARK    8  A    between atoms: C9_15  and  C11_18 
REMARK       I    between atoms: C10_16  and  N4_21 
REMARK    9  A    between atoms: C11_18  and  C12_19 
REMARK   10  A    between atoms: C11_18  and  C13_20 
REMARK   11  A    between atoms: N4_21  and  C14_22 
REMARK   12  A    between atoms: C14_22  and  C15_23 
REMARK   13  A    between atoms: C14_22  and  C16_25 
REMARK       I    between atoms: C15_23  and  N6_40 
REMARK   14  A    between atoms: C16_25  and  C17_26 
REMARK   15  A    between atoms: C17_26  and  C18_27 
REMARK   16  A    between atoms: C17_26  and  C19_28 
REMARK   17  A    between atoms: C20_29  and  C21_30 
REMARK   18  A    between atoms: C20_29  and  C24_33 
REMARK   19  A    between atoms: C20_29  and  N6_40 
REMARK   20  A    between atoms: C21_30  and  C22_31 
REMARK   21  A    between atoms: C22_31  and  C23_32 
REMARK   22  A    between atoms: C23_32  and  O8_43 
REMARK   23  A    between atoms: C24_33  and  C25_34 
REMARK   24  A    between atoms: C28_38  and  O6_39 
REMARK   25  A    between atoms: C29_42  and  O8_43 
REMARK   26  A    between atoms: C29_42  and  C35_49 
ROOT
ATOM      1  C14 non d ame      -6.938  13.173  67.960  0.00  0.00     0.089 C 
ATOM      2  H20 non d ame      -6.327  13.043  67.067  0.00  0.00     0.087 H 
ENDROOT
BRANCH   1   3
ATOM      3  N4  non d ame      -7.187  14.598  68.117  0.00  0.00    -0.346 N 
ATOM      4  C10 non d ame      -6.124  15.603  67.747  0.00  0.00     0.241 C 
ATOM      5  O4  non d ame      -5.075  15.239  67.328  0.00  0.00    -0.271 OA
ATOM      6  H19 non d ame      -8.086  14.887  68.478  0.00  0.00     0.163 HD
BRANCH   4   7
ATOM      7  C9  non d ame      -6.401  17.074  67.911  0.00  0.00     0.092 C 
ATOM      8  H11 non d ame      -6.189  17.585  66.972  0.00  0.00     0.088 H 
BRANCH   7   9
ATOM      9  N3  non d ame      -7.824  17.275  68.200  0.00  0.00    -0.346 N 
ATOM     10  C7  non d ame      -8.746  17.558  67.129  0.00  0.00     0.240 C 
ATOM     11  O3  non d ame      -8.359  17.629  66.026  0.00  0.00    -0.271 OA
ATOM     12  H10 non d ame      -8.171  17.218  69.147  0.00  0.00     0.163 HD
BRANCH  10  13
ATOM     13  C6  non d ame     -10.258  17.774  67.444  0.00  0.00     0.086 C 
ATOM     14  H6  non d ame     -10.914  17.246  66.751  0.00  0.00     0.086 H 
BRANCH  13  15
ATOM     15  N2  non d ame     -10.542  17.247  68.769  0.00  0.00    -0.343 N 
ATOM     16  C5  non d ame     -11.469  16.122  68.913  0.00  0.00     0.273 C 
ATOM     17  O2  non d ame     -11.982  15.650  67.958  0.00  0.00    -0.266 OA
ATOM     18  H5  non d ame     -10.102  17.657  69.579  0.00  0.00     0.163 HD
BRANCH  16  19
ATOM     19  C4  non d ame     -11.778  15.553  70.307  0.00  0.00     0.154 A 
ATOM     20  C1  non d ame     -11.855  16.278  71.539  0.00  0.00    -0.017 A 
ATOM     21  C2  non d ame     -12.163  15.304  72.515  0.00  0.00     0.077 A 
ATOM     22  H1  non d ame     -11.710  17.346  71.700  0.00  0.00     0.091 H 
ATOM     23  O1  non d ame     -12.252  14.158  71.905  0.00  0.00    -0.218 OA
ATOM     24  N1  non d ame     -12.030  14.278  70.615  0.00  0.00    -0.123 NA
BRANCH  21  25
ATOM     25  C3  non d ame     -12.357  15.551  74.004  0.00  0.00    -0.029 C 
ATOM     26  H2  non d ame     -13.121  14.874  74.390  0.00  0.00     0.036 H 
ATOM     27  H3  non d ame     -11.418  15.374  74.528  0.00  0.00     0.036 H 
ATOM     28  H4  non d ame     -12.672  16.582  74.165  0.00  0.00     0.036 H 
ENDBRANCH  21  25
ENDBRANCH  16  19
ENDBRANCH  13  15
BRANCH  13  29
ATOM     29  C8  non d ame     -10.580  19.246  67.395  0.00  0.00    -0.049 C 
ATOM     30  H7  non d ame      -9.810  19.768  66.826  0.00  0.00     0.030 H 
ATOM     31  H8  non d ame     -11.548  19.390  66.912  0.00  0.00     0.030 H 
ATOM     32  H9  non d ame     -10.616  19.644  68.408  0.00  0.00     0.030 H 
ENDBRANCH  13  29
ENDBRANCH  10  13
ENDBRANCH   7   9
BRANCH   7  33
ATOM     33  C11 non d ame      -5.550  17.635  69.087  0.00  0.00    -0.033 C 
ATOM     34  H12 non d ame      -4.514  17.682  68.750  0.00  0.00     0.042 H 
BRANCH  33  35
ATOM     35  C12 non d ame      -5.987  19.084  69.465  0.00  0.00    -0.071 C 
ATOM     36  H13 non d ame      -5.747  19.761  68.645  0.00  0.00     0.028 H 
ATOM     37  H14 non d ame      -7.061  19.104  69.648  0.00  0.00     0.028 H 
ATOM     38  H15 non d ame      -5.460  19.400  70.364  0.00  0.00     0.028 H 
ENDBRANCH  33  35
BRANCH  33  39
ATOM     39  C13 non d ame      -5.612  16.684  70.325  0.00  0.00    -0.071 C 
ATOM     40  H16 non d ame      -6.526  16.092  70.283  0.00  0.00     0.028 H 
ATOM     41  H17 non d ame      -4.748  16.020  70.318  0.00  0.00     0.028 H 
ATOM     42  H18 non d ame      -5.607  17.278  71.239  0.00  0.00     0.028 H 
ENDBRANCH  33  39
ENDBRANCH   7  33
ENDBRANCH   4   7
ENDBRANCH   1   3
BRANCH   1  43
ATOM     43  C15 non d ame      -8.305  12.441  67.849  0.00  0.00     0.240 C 
ATOM     44  O5  non d ame      -8.946  12.231  68.830  0.00  0.00    -0.271 OA
ATOM     45  N6  non d ame      -8.823  12.007  66.520  0.00  0.00    -0.355 N 
ATOM     46  H46 non d ame      -8.291  12.183  65.680  0.00  0.00     0.162 HD
BRANCH  45  47
ATOM     47  C20 non d ame     -10.126  11.313  66.432  0.00  0.00     0.013 C 
ATOM     48  H30 non d ame     -10.305  10.814  67.384  0.00  0.00     0.072 H 
BRANCH  47  49
ATOM     49  C21 non d ame     -10.074  10.294  65.316  0.00  0.00    -0.038 C 
ATOM     50  H31 non d ame     -10.279   9.331  65.787  0.00  0.00     0.036 H 
ATOM     51  H32 non d ame     -10.740  10.674  64.540  0.00  0.00     0.036 H 
BRANCH  49  52
ATOM     52  C22 non d ame      -8.676  10.178  64.673  0.00  0.00     0.018 C 
ATOM     53  H33 non d ame      -8.056  10.920  65.178  0.00  0.00     0.048 H 
ATOM     54  H34 non d ame      -8.413   9.121  64.726  0.00  0.00     0.048 H 
BRANCH  52  55
ATOM     55  C23 non d ame      -8.648  10.553  63.165  0.00  0.00     0.259 C 
ATOM     56  O7  non d ame      -9.615  10.995  62.636  0.00  0.00    -0.265 OA
BRANCH  55  57
ATOM     57  O8  non d ame      -7.455  10.350  62.418  0.00  0.00    -0.317 OA
BRANCH  57  58
ATOM     58  C29 non d ame      -7.474   9.179  61.596  0.00  0.00     0.052 C 
ATOM     59  H47 non d ame      -8.522   9.009  61.348  0.00  0.00     0.082 H 
ATOM     60  H48 non d ame      -6.750   9.364  60.802  0.00  0.00     0.082 H 
BRANCH  58  61
ATOM     61  C35 non d ame      -6.971   7.985  62.450  0.00  0.00    -0.034 A 
ATOM     62  C30 non d ame      -7.855   6.984  62.837  0.00  0.00    -0.075 A 
ATOM     63  C31 non d ame      -7.403   5.912  63.605  0.00  0.00    -0.082 A 
ATOM     64  H49 non d ame      -8.902   7.039  62.540  0.00  0.00     0.084 H 
ATOM     65  C32 non d ame      -6.061   5.844  63.987  0.00  0.00    -0.083 A 
ATOM     66  H50 non d ame      -8.098   5.128  63.905  0.00  0.00     0.083 H 
ATOM     67  C33 non d ame      -5.182   6.847  63.601  0.00  0.00    -0.082 A 
ATOM     68  H51 non d ame      -5.699   5.009  64.587  0.00  0.00     0.083 H 
ATOM     69  C34 non d ame      -5.630   7.920  62.832  0.00  0.00    -0.075 A 
ATOM     70  H52 non d ame      -4.136   6.793  63.903  0.00  0.00     0.083 H 
ATOM     71  H53 non d ame      -4.933   8.704  62.531  0.00  0.00     0.084 H 
ENDBRANCH  58  61
ENDBRANCH  57  58
ENDBRANCH  55  57
ENDBRANCH  52  55
ENDBRANCH  49  52
ENDBRANCH  47  49
BRANCH  47  72
ATOM     72  C24 non d ame     -11.232  12.326  66.147  0.00  0.00    -0.039 C 
ATOM     73  H35 non d ame     -12.123  11.733  65.942  0.00  0.00     0.036 H 
ATOM     74  H36 non d ame     -11.219  13.016  66.991  0.00  0.00     0.036 H 
BRANCH  72  75
ATOM     75  C25 non d ame     -10.923  13.186  64.831  0.00  0.00    -0.001 C 
ATOM     76  C26 non d ame     -10.456  14.705  65.250  0.00  0.00    -0.035 C 
ATOM     77  C27 non d ame     -11.205  15.599  64.561  0.00  0.00     0.085 C 
ATOM     78  H38 non d ame     -10.717  14.903  66.289  0.00  0.00     0.036 H 
ATOM     79  H39 non d ame      -9.442  14.896  64.897  0.00  0.00     0.036 H 
ATOM     80  N5  non d ame     -12.358  14.835  63.956  0.00  0.00    -0.049 N 
ATOM     81  H40 non d ame     -11.591  16.294  65.307  0.00  0.00     0.075 H 
ATOM     82  H41 non d ame     -10.561  15.961  63.759  0.00  0.00     0.075 H 
ATOM     83  C28 non d ame     -11.967  13.273  64.074  0.00  0.00     0.193 C 
ATOM     84  H42 non d ame     -13.159  15.011  64.546  0.00  0.00     0.280 HD
ATOM     85  H43 non d ame     -12.387  15.086  62.979  0.00  0.00     0.280 HD
ATOM     86  H44 non d ame     -11.625  12.720  63.199  0.00  0.00     0.129 H 
ATOM     87  H37 non d ame     -10.289  12.648  64.126  0.00  0.00     0.046 H 
BRANCH  83  88
ATOM     88  O6  non d ame     -13.071  12.527  64.590  0.00  0.00    -0.369 OA
ATOM     89  H45 non d ame     -13.772  12.500  63.936  0.00  0.00     0.212 HD
ENDBRANCH  83  88
ENDBRANCH  72  75
ENDBRANCH  47  72
ENDBRANCH  45  47
ENDBRANCH   1  43
BRANCH   1  90
ATOM     90  C16 non d ame      -6.183  12.664  69.179  0.00  0.00    -0.035 C 
ATOM     91  H21 non d ame      -5.807  13.557  69.679  0.00  0.00     0.037 H 
ATOM     92  H22 non d ame      -6.879  12.004  69.694  0.00  0.00     0.037 H 
BRANCH  90  93
ATOM     93  C17 non d ame      -4.932  11.799  68.824  0.00  0.00    -0.059 C 
ATOM     94  H23 non d ame      -4.060  12.282  69.266  0.00  0.00     0.038 H 
BRANCH  93  95
ATOM     95  C18 non d ame      -5.027  10.355  69.411  0.00  0.00    -0.073 C 
ATOM     96  H24 non d ame      -4.226   9.741  68.997  0.00  0.00     0.028 H 
ATOM     97  H25 non d ame      -4.928  10.396  70.495  0.00  0.00     0.028 H 
ATOM     98  H26 non d ame      -5.991   9.919  69.150  0.00  0.00     0.028 H 
ENDBRANCH  93  95
BRANCH  93  99
ATOM     99  C19 non d ame      -4.708  11.759  67.310  0.00  0.00    -0.073 C 
ATOM    100  H27 non d ame      -4.463  10.741  67.006  0.00  0.00     0.028 H 
ATOM    101  H28 non d ame      -5.615  12.082  66.799  0.00  0.00     0.028 H 
ATOM    102  H29 non d ame      -3.886  12.424  67.047  0.00  0.00     0.028 H 
ENDBRANCH  93  99
ENDBRANCH  90  93
ENDBRANCH   1  90
TORSDOF 26
ENDMDL
MODEL 15
REMARK VINA RESULT:      -6.7      3.296      6.476
REMARK  26 active torsions:
REMARK  status: ('A' for Active; 'I' for Inactive)
REMARK    1  A    between atoms: C2_2  and  C3_3 
REMARK    2  A    between atoms: C4_6  and  C5_7 
REMARK       I    between atoms: C5_7  and  N2_9 
REMARK    3  A    between atoms: N2_9  and  C6_10 
REMARK    4  A    between atoms: C6_10  and  C7_11 
REMARK    5  A    between atoms: C6_10  and  C8_13 
REMARK       I    between atoms: C7_11  and  N3_14 
REMARK    6  A    between atoms: N3_14  and  C9_15 
REMARK    7  A    between atoms: C9_15  and  C10_16 
REMARK    8  A    between atoms: C9_15  and  C11_18 
REMARK       I    between atoms: C10_16  and  N4_21 
REMARK    9  A    between atoms: C11_18  and  C12_19 
REMARK   10  A    between atoms: C11_18  and  C13_20 
REMARK   11  A    between atoms: N4_21  and  C14_22 
REMARK   12  A    between atoms: C14_22  and  C15_23 
REMARK   13  A    between atoms: C14_22  and  C16_25 
REMARK       I    between atoms: C15_23  and  N6_40 
REMARK   14  A    between atoms: C16_25  and  C17_26 
REMARK   15  A    between atoms: C17_26  and  C18_27 
REMARK   16  A    between atoms: C17_26  and  C19_28 
REMARK   17  A    between atoms: C20_29  and  C21_30 
REMARK   18  A    between atoms: C20_29  and  C24_33 
REMARK   19  A    between atoms: C20_29  and  N6_40 
REMARK   20  A    between atoms: C21_30  and  C22_31 
REMARK   21  A    between atoms: C22_31  and  C23_32 
REMARK   22  A    between atoms: C23_32  and  O8_43 
REMARK   23  A    between atoms: C24_33  and  C25_34 
REMARK   24  A    between atoms: C28_38  and  O6_39 
REMARK   25  A    between atoms: C29_42  and  O8_43 
REMARK   26  A    between atoms: C29_42  and  C35_49 
ROOT
ATOM      1  C14 non d ame      -8.113  10.173  69.523  0.00  0.00     0.089 C 
ATOM      2  H20 non d ame      -8.514  10.548  70.465  0.00  0.00     0.087 H 
ENDROOT
BRANCH   1   3
ATOM      3  N4  non d ame      -8.713   8.870  69.278  0.00  0.00    -0.346 N 
ATOM      4  C10 non d ame     -10.168   8.630  69.596  0.00  0.00     0.241 C 
ATOM      5  O4  non d ame     -10.835   9.501  70.050  0.00  0.00    -0.271 OA
ATOM      6  H19 non d ame      -8.128   8.142  68.894  0.00  0.00     0.163 HD
BRANCH   4   7
ATOM      7  C9  non d ame     -10.775   7.277  69.331  0.00  0.00     0.092 C 
ATOM      8  H11 non d ame     -11.709   7.404  68.784  0.00  0.00     0.088 H 
BRANCH   7   9
ATOM      9  N3  non d ame      -9.875   6.497  68.475  0.00  0.00    -0.346 N 
ATOM     10  C7  non d ame     -10.259   6.184  67.121  0.00  0.00     0.240 C 
ATOM     11  O3  non d ame     -11.290   6.550  66.704  0.00  0.00    -0.271 OA
ATOM     12  H10 non d ame      -8.984   6.173  68.822  0.00  0.00     0.163 HD
BRANCH  10  13
ATOM     13  C6  non d ame      -9.299   5.350  66.218  0.00  0.00     0.086 C 
ATOM     14  H6  non d ame      -9.786   4.483  65.771  0.00  0.00     0.086 H 
BRANCH  13  15
ATOM     15  N2  non d ame      -8.846   6.184  65.117  0.00  0.00    -0.343 N 
ATOM     16  C5  non d ame      -8.117   7.422  65.403  0.00  0.00     0.273 C 
ATOM     17  O2  non d ame      -7.903   7.738  66.521  0.00  0.00    -0.266 OA
ATOM     18  H5  non d ame      -9.035   5.908  64.164  0.00  0.00     0.163 HD
BRANCH  16  19
ATOM     19  C4  non d ame      -7.630   8.313  64.249  0.00  0.00     0.154 A 
ATOM     20  C1  non d ame      -8.437   9.073  63.344  0.00  0.00    -0.017 A 
ATOM     21  C2  non d ame      -7.516   9.710  62.482  0.00  0.00     0.077 A 
ATOM     22  H1  non d ame      -9.525   9.152  63.317  0.00  0.00     0.091 H 
ATOM     23  O1  non d ame      -6.323   9.351  62.858  0.00  0.00    -0.218 OA
ATOM     24  N1  non d ame      -6.364   8.535  63.887  0.00  0.00    -0.123 NA
BRANCH  21  25
ATOM     25  C3  non d ame      -7.858  10.644  61.330  0.00  0.00    -0.029 C 
ATOM     26  H2  non d ame      -6.938  11.031  60.890  0.00  0.00     0.036 H 
ATOM     27  H3  non d ame      -8.419  10.096  60.573  0.00  0.00     0.036 H 
ATOM     28  H4  non d ame      -8.461  11.474  61.699  0.00  0.00     0.036 H 
ENDBRANCH  21  25
ENDBRANCH  16  19
ENDBRANCH  13  15
BRANCH  13  29
ATOM     29  C8  non d ame      -8.119   4.882  67.030  0.00  0.00    -0.049 C 
ATOM     30  H7  non d ame      -7.197   5.098  66.489  0.00  0.00     0.030 H 
ATOM     31  H8  non d ame      -8.108   5.403  67.988  0.00  0.00     0.030 H 
ATOM     32  H9  non d ame      -8.196   3.809  67.199  0.00  0.00     0.030 H 
ENDBRANCH  13  29
ENDBRANCH  10  13
ENDBRANCH   7   9
BRANCH   7  33
ATOM     33  C11 non d ame     -10.983   6.529  70.680  0.00  0.00    -0.033 C 
ATOM     34  H12 non d ame     -10.990   5.460  70.465  0.00  0.00     0.042 H 
BRANCH  33  35
ATOM     35  C12 non d ame      -9.806   6.800  71.668  0.00  0.00    -0.071 C 
ATOM     36  H13 non d ame      -9.742   7.869  71.871  0.00  0.00     0.028 H 
ATOM     37  H14 non d ame      -9.983   6.264  72.600  0.00  0.00     0.028 H 
ATOM     38  H15 non d ame      -8.873   6.457  71.224  0.00  0.00     0.028 H 
ENDBRANCH  33  35
BRANCH  33  39
ATOM     39  C13 non d ame     -12.358   6.903  71.320  0.00  0.00    -0.071 C 
ATOM     40  H16 non d ame     -12.996   6.020  71.351  0.00  0.00     0.028 H 
ATOM     41  H17 non d ame     -12.200   7.274  72.333  0.00  0.00     0.028 H 
ATOM     42  H18 non d ame     -12.838   7.676  70.720  0.00  0.00     0.028 H 
ENDBRANCH  33  39
ENDBRANCH   7  33
ENDBRANCH   4   7
ENDBRANCH   1   3
BRANCH   1  43
ATOM     43  C15 non d ame      -8.453  11.108  68.327  0.00  0.00     0.240 C 
ATOM     44  O5  non d ame      -7.867  10.989  67.299  0.00  0.00    -0.271 OA
ATOM     45  N6  non d ame      -9.516  12.145  68.459  0.00  0.00    -0.355 N 
ATOM     46  H46 non d ame     -10.023  12.252  69.326  0.00  0.00     0.162 HD
BRANCH  45  47
ATOM     47  C20 non d ame      -9.828  13.024  67.312  0.00  0.00     0.013 C 
ATOM     48  H30 non d ame      -9.269  12.662  66.450  0.00  0.00     0.072 H 
BRANCH  47  49
ATOM     49  C21 non d ame      -9.410  14.440  67.640  0.00  0.00    -0.038 C 
ATOM     50  H31 non d ame      -9.626  14.574  68.700  0.00  0.00     0.036 H 
ATOM     51  H32 non d ame      -8.387  14.537  67.274  0.00  0.00     0.036 H 
BRANCH  49  52
ATOM     52  C22 non d ame     -10.244  15.500  66.888  0.00  0.00     0.018 C 
ATOM     53  H33 non d ame      -9.549  15.998  66.210  0.00  0.00     0.048 H 
ATOM     54  H34 non d ame     -11.107  14.968  66.487  0.00  0.00     0.048 H 
BRANCH  52  55
ATOM     55  C23 non d ame     -10.816  16.615  67.808  0.00  0.00     0.259 C 
ATOM     56  O7  non d ame     -10.419  17.731  67.719  0.00  0.00    -0.265 OA
BRANCH  55  57
ATOM     57  O8  non d ame     -11.810  16.284  68.769  0.00  0.00    -0.317 OA
BRANCH  57  58
ATOM     58  C29 non d ame     -11.319  16.194  70.109  0.00  0.00     0.052 C 
ATOM     59  H47 non d ame     -10.297  15.827  70.026  0.00  0.00     0.082 H 
ATOM     60  H48 non d ame     -11.513  17.168  70.559  0.00  0.00     0.082 H 
BRANCH  58  61
ATOM     61  C35 non d ame     -12.164  15.130  70.859  0.00  0.00    -0.034 A 
ATOM     62  C30 non d ame     -13.094  15.526  71.814  0.00  0.00    -0.075 A 
ATOM     63  C31 non d ame     -13.853  14.571  72.488  0.00  0.00    -0.082 A 
ATOM     64  H49 non d ame     -13.228  16.585  72.035  0.00  0.00     0.084 H 
ATOM     65  C32 non d ame     -13.677  13.214  72.204  0.00  0.00    -0.083 A 
ATOM     66  H50 non d ame     -14.582  14.884  73.235  0.00  0.00     0.083 H 
ATOM     67  C33 non d ame     -12.746  12.822  71.252  0.00  0.00    -0.082 A 
ATOM     68  H51 non d ame     -14.267  12.460  72.726  0.00  0.00     0.083 H 
ATOM     69  C34 non d ame     -11.987  13.775  70.575  0.00  0.00    -0.075 A 
ATOM     70  H52 non d ame     -12.609  11.763  71.035  0.00  0.00     0.083 H 
ATOM     71  H53 non d ame     -11.257  13.460  69.827  0.00  0.00     0.084 H 
ENDBRANCH  58  61
ENDBRANCH  57  58
ENDBRANCH  55  57
ENDBRANCH  52  55
ENDBRANCH  49  52
ENDBRANCH  47  49
BRANCH  47  72
ATOM     72  C24 non d ame     -11.327  12.988  67.027  0.00  0.00    -0.039 C 
ATOM     73  H35 non d ame     -11.771  12.461  67.871  0.00  0.00     0.036 H 
ATOM     74  H36 non d ame     -11.609  14.020  66.820  0.00  0.00     0.036 H 
BRANCH  72  75
ATOM     75  C25 non d ame     -11.659  12.135  65.711  0.00  0.00    -0.001 C 
ATOM     76  C26 non d ame     -10.276  11.834  64.874  0.00  0.00    -0.035 C 
ATOM     77  C27 non d ame     -10.458  12.202  63.584  0.00  0.00     0.085 C 
ATOM     78  H38 non d ame      -9.481  12.495  65.218  0.00  0.00     0.036 H 
ATOM     79  H39 non d ame     -10.103  10.759  64.812  0.00  0.00     0.036 H 
ATOM     80  N5  non d ame     -11.721  13.026  63.533  0.00  0.00    -0.049 N 
ATOM     81  H40 non d ame      -9.608  12.839  63.339  0.00  0.00     0.075 H 
ATOM     82  H41 non d ame     -10.619  11.273  63.036  0.00  0.00     0.075 H 
ATOM     83  C28 non d ame     -12.476  12.770  64.937  0.00  0.00     0.193 C 
ATOM     84  H42 non d ame     -11.431  13.993  63.496  0.00  0.00     0.280 HD
ATOM     85  H43 non d ame     -12.286  12.640  62.790  0.00  0.00     0.280 HD
ATOM     86  H44 non d ame     -13.346  12.114  64.987  0.00  0.00     0.129 H 
ATOM     87  H37 non d ame     -12.306  11.284  65.923  0.00  0.00     0.046 H 
BRANCH  83  88
ATOM     88  O6  non d ame     -12.900  14.011  65.502  0.00  0.00    -0.369 OA
ATOM     89  H45 non d ame     -13.539  13.844  66.199  0.00  0.00     0.212 HD
ENDBRANCH  83  88
ENDBRANCH  72  75
ENDBRANCH  47  72
ENDBRANCH  45  47
ENDBRANCH   1  43
BRANCH   1  90
ATOM     90  C16 non d ame      -6.605  10.012  69.633  0.00  0.00    -0.035 C 
ATOM     91  H21 non d ame      -6.219  10.224  68.636  0.00  0.00     0.037 H 
ATOM     92  H22 non d ame      -6.309  10.637  70.475  0.00  0.00     0.037 H 
BRANCH  90  93
ATOM     93  C17 non d ame      -6.154   8.559  69.982  0.00  0.00    -0.059 C 
ATOM     94  H23 non d ame      -7.039   7.924  69.961  0.00  0.00     0.038 H 
BRANCH  93  95
ATOM     95  C18 non d ame      -5.136   7.991  68.942  0.00  0.00    -0.073 C 
ATOM     96  H24 non d ame      -4.987   6.926  69.123  0.00  0.00     0.028 H 
ATOM     97  H25 non d ame      -5.527   8.135  67.935  0.00  0.00     0.028 H 
ATOM     98  H26 non d ame      -4.185   8.514  69.040  0.00  0.00     0.028 H 
ENDBRANCH  93  95
BRANCH  93  99
ATOM     99  C19 non d ame      -5.579   8.490  71.400  0.00  0.00    -0.073 C 
ATOM    100  H27 non d ame      -4.546   8.145  71.356  0.00  0.00     0.028 H 
ATOM    101  H28 non d ame      -5.614   9.480  71.854  0.00  0.00     0.028 H 
ATOM    102  H29 non d ame      -6.169   7.795  71.996  0.00  0.00     0.028 H 
ENDBRANCH  93  99
ENDBRANCH  90  93
ENDBRANCH   1  90
TORSDOF 26
ENDMDL
MODEL 16
REMARK VINA RESULT:      -6.7      3.481      8.826
REMARK  26 active torsions:
REMARK  status: ('A' for Active; 'I' for Inactive)
REMARK    1  A    between atoms: C2_2  and  C3_3 
REMARK    2  A    between atoms: C4_6  and  C5_7 
REMARK       I    between atoms: C5_7  and  N2_9 
REMARK    3  A    between atoms: N2_9  and  C6_10 
REMARK    4  A    between atoms: C6_10  and  C7_11 
REMARK    5  A    between atoms: C6_10  and  C8_13 
REMARK       I    between atoms: C7_11  and  N3_14 
REMARK    6  A    between atoms: N3_14  and  C9_15 
REMARK    7  A    between atoms: C9_15  and  C10_16 
REMARK    8  A    between atoms: C9_15  and  C11_18 
REMARK       I    between atoms: C10_16  and  N4_21 
REMARK    9  A    between atoms: C11_18  and  C12_19 
REMARK   10  A    between atoms: C11_18  and  C13_20 
REMARK   11  A    between atoms: N4_21  and  C14_22 
REMARK   12  A    between atoms: C14_22  and  C15_23 
REMARK   13  A    between atoms: C14_22  and  C16_25 
REMARK       I    between atoms: C15_23  and  N6_40 
REMARK   14  A    between atoms: C16_25  and  C17_26 
REMARK   15  A    between atoms: C17_26  and  C18_27 
REMARK   16  A    between atoms: C17_26  and  C19_28 
REMARK   17  A    between atoms: C20_29  and  C21_30 
REMARK   18  A    between atoms: C20_29  and  C24_33 
REMARK   19  A    between atoms: C20_29  and  N6_40 
REMARK   20  A    between atoms: C21_30  and  C22_31 
REMARK   21  A    between atoms: C22_31  and  C23_32 
REMARK   22  A    between atoms: C23_32  and  O8_43 
REMARK   23  A    between atoms: C24_33  and  C25_34 
REMARK   24  A    between atoms: C28_38  and  O6_39 
REMARK   25  A    between atoms: C29_42  and  O8_43 
REMARK   26  A    between atoms: C29_42  and  C35_49 
ROOT
ATOM      1  C14 non d ame      -6.590  11.217  67.410  0.00  0.00     0.089 C 
ATOM      2  H20 non d ame      -6.198  11.241  68.426  0.00  0.00     0.087 H 
ENDROOT
BRANCH   1   3
ATOM      3  N4  non d ame      -6.681  12.591  66.942  0.00  0.00    -0.346 N 
ATOM      4  C10 non d ame      -6.878  13.719  67.924  0.00  0.00     0.241 C 
ATOM      5  O4  non d ame      -6.963  13.494  69.087  0.00  0.00    -0.271 OA
ATOM      6  H19 non d ame      -6.609  12.761  65.948  0.00  0.00     0.163 HD
BRANCH   4   7
ATOM      7  C9  non d ame      -6.965  15.136  67.423  0.00  0.00     0.092 C 
ATOM      8  H11 non d ame      -6.902  15.137  66.335  0.00  0.00     0.088 H 
BRANCH   7   9
ATOM      9  N3  non d ame      -8.269  15.703  67.781  0.00  0.00    -0.346 N 
ATOM     10  C7  non d ame      -8.948  16.586  66.866  0.00  0.00     0.240 C 
ATOM     11  O3  non d ame      -8.458  16.853  65.837  0.00  0.00    -0.271 OA
ATOM     12  H10 non d ame      -8.702  15.483  68.667  0.00  0.00     0.163 HD
BRANCH  10  13
ATOM     13  C6  non d ame     -10.333  17.188  67.255  0.00  0.00     0.086 C 
ATOM     14  H6  non d ame     -11.144  16.823  66.624  0.00  0.00     0.086 H 
BRANCH  13  15
ATOM     15  N2  non d ame     -10.654  16.791  68.616  0.00  0.00    -0.343 N 
ATOM     16  C5  non d ame     -11.577  15.676  68.843  0.00  0.00     0.273 C 
ATOM     17  O2  non d ame     -12.057  15.108  67.925  0.00  0.00    -0.266 OA
ATOM     18  H5  non d ame     -10.241  17.284  69.394  0.00  0.00     0.163 HD
BRANCH  16  19
ATOM     19  C4  non d ame     -11.923  15.244  70.277  0.00  0.00     0.154 A 
ATOM     20  C1  non d ame     -11.842  16.041  71.463  0.00  0.00    -0.017 A 
ATOM     21  C2  non d ame     -12.266  15.186  72.505  0.00  0.00     0.077 A 
ATOM     22  H1  non d ame     -11.523  17.080  71.555  0.00  0.00     0.091 H 
ATOM     23  O1  non d ame     -12.557  14.036  71.969  0.00  0.00    -0.218 OA
ATOM     24  N1  non d ame     -12.364  14.046  70.669  0.00  0.00    -0.123 NA
BRANCH  21  25
ATOM     25  C3  non d ame     -12.367  15.545  73.981  0.00  0.00    -0.029 C 
ATOM     26  H2  non d ame     -11.446  16.035  74.301  0.00  0.00     0.036 H 
ATOM     27  H3  non d ame     -13.208  16.220  74.134  0.00  0.00     0.036 H 
ATOM     28  H4  non d ame     -12.518  14.638  74.567  0.00  0.00     0.036 H 
ENDBRANCH  21  25
ENDBRANCH  16  19
ENDBRANCH  13  15
BRANCH  13  29
ATOM     29  C8  non d ame     -10.278  18.691  67.155  0.00  0.00    -0.049 C 
ATOM     30  H7  non d ame     -10.108  18.981  66.118  0.00  0.00     0.030 H 
ATOM     31  H8  non d ame     -11.223  19.113  67.500  0.00  0.00     0.030 H 
ATOM     32  H9  non d ame      -9.464  19.066  67.774  0.00  0.00     0.030 H 
ENDBRANCH  13  29
ENDBRANCH  10  13
ENDBRANCH   7   9
BRANCH   7  33
ATOM     33  C11 non d ame      -5.835  15.987  68.075  0.00  0.00    -0.033 C 
ATOM     34  H12 non d ame      -5.119  15.296  68.519  0.00  0.00     0.042 H 
BRANCH  33  35
ATOM     35  C12 non d ame      -5.072  16.832  67.008  0.00  0.00    -0.071 C 
ATOM     36  H13 non d ame      -5.725  17.013  66.154  0.00  0.00     0.028 H 
ATOM     37  H14 non d ame      -4.773  17.785  67.444  0.00  0.00     0.028 H 
ATOM     38  H15 non d ame      -4.186  16.289  66.681  0.00  0.00     0.028 H 
ENDBRANCH  33  35
BRANCH  33  39
ATOM     39  C13 non d ame      -6.404  16.893  69.214  0.00  0.00    -0.071 C 
ATOM     40  H16 non d ame      -5.609  17.525  69.607  0.00  0.00     0.028 H 
ATOM     41  H17 non d ame      -7.204  17.519  68.816  0.00  0.00     0.028 H 
ATOM     42  H18 non d ame      -6.798  16.265  70.013  0.00  0.00     0.028 H 
ENDBRANCH  33  39
ENDBRANCH   7  33
ENDBRANCH   4   7
ENDBRANCH   1   3
BRANCH   1  43
ATOM     43  C15 non d ame      -5.665  10.424  66.442  0.00  0.00     0.240 C 
ATOM     44  O5  non d ame      -4.486  10.457  66.591  0.00  0.00    -0.271 OA
ATOM     45  N6  non d ame      -6.249   9.617  65.334  0.00  0.00    -0.355 N 
ATOM     46  H46 non d ame      -7.250   9.577  65.199  0.00  0.00     0.162 HD
BRANCH  45  47
ATOM     47  C20 non d ame      -5.357   8.868  64.423  0.00  0.00     0.013 C 
ATOM     48  H30 non d ame      -4.334   8.990  64.780  0.00  0.00     0.072 H 
BRANCH  47  49
ATOM     49  C21 non d ame      -5.485   9.429  63.024  0.00  0.00    -0.038 C 
ATOM     50  H31 non d ame      -4.598  10.045  62.871  0.00  0.00     0.036 H 
ATOM     51  H32 non d ame      -5.670   8.570  62.379  0.00  0.00     0.036 H 
BRANCH  49  52
ATOM     52  C22 non d ame      -6.701  10.366  62.863  0.00  0.00     0.018 C 
ATOM     53  H33 non d ame      -7.024  10.609  63.876  0.00  0.00     0.048 H 
ATOM     54  H34 non d ame      -6.375  11.160  62.190  0.00  0.00     0.048 H 
BRANCH  52  55
ATOM     55  C23 non d ame      -7.922   9.694  62.176  0.00  0.00     0.259 C 
ATOM     56  O7  non d ame      -7.761   8.867  61.338  0.00  0.00    -0.265 OA
BRANCH  55  57
ATOM     57  O8  non d ame      -9.236  10.087  62.549  0.00  0.00    -0.317 OA
BRANCH  57  58
ATOM     58  C29 non d ame      -9.489  10.017  63.955  0.00  0.00     0.052 C 
ATOM     59  H47 non d ame      -9.954   9.047  64.124  0.00  0.00     0.082 H 
ATOM     60  H48 non d ame      -8.542  10.259  64.437  0.00  0.00     0.082 H 
BRANCH  58  61
ATOM     61  C35 non d ame     -10.517  11.123  64.313  0.00  0.00    -0.034 A 
ATOM     62  C30 non d ame     -11.080  11.902  63.307  0.00  0.00    -0.075 A 
ATOM     63  C31 non d ame     -12.004  12.896  63.628  0.00  0.00    -0.082 A 
ATOM     64  H49 non d ame     -10.798  11.735  62.269  0.00  0.00     0.084 H 
ATOM     65  C32 non d ame     -12.363  13.111  64.962  0.00  0.00    -0.083 A 
ATOM     66  H50 non d ame     -12.444  13.503  62.838  0.00  0.00     0.083 H 
ATOM     67  C33 non d ame     -11.796  12.333  65.963  0.00  0.00    -0.082 A 
ATOM     68  H51 non d ame     -13.084  13.885  65.221  0.00  0.00     0.083 H 
ATOM     69  C34 non d ame     -10.874  11.337  65.645  0.00  0.00    -0.075 A 
ATOM     70  H52 non d ame     -12.076  12.505  67.002  0.00  0.00     0.083 H 
ATOM     71  H53 non d ame     -10.434  10.729  66.438  0.00  0.00     0.084 H 
ENDBRANCH  58  61
ENDBRANCH  57  58
ENDBRANCH  55  57
ENDBRANCH  52  55
ENDBRANCH  49  52
ENDBRANCH  47  49
BRANCH  47  72
ATOM     72  C24 non d ame      -5.745   7.392  64.417  0.00  0.00    -0.039 C 
ATOM     73  H35 non d ame      -5.716   7.087  63.371  0.00  0.00     0.036 H 
ATOM     74  H36 non d ame      -5.084   6.915  65.142  0.00  0.00     0.036 H 
BRANCH  72  75
ATOM     75  C25 non d ame      -7.246   7.172  64.932  0.00  0.00    -0.001 C 
ATOM     76  C26 non d ame      -7.240   6.292  66.321  0.00  0.00    -0.035 C 
ATOM     77  C27 non d ame      -8.097   5.252  66.183  0.00  0.00     0.085 C 
ATOM     78  H38 non d ame      -6.273   5.808  66.451  0.00  0.00     0.036 H 
ATOM     79  H39 non d ame      -7.673   6.874  67.135  0.00  0.00     0.036 H 
ATOM     80  N5  non d ame      -8.442   5.155  64.717  0.00  0.00    -0.049 N 
ATOM     81  H40 non d ame      -7.532   4.367  66.475  0.00  0.00     0.075 H 
ATOM     82  H41 non d ame      -8.991   5.537  66.739  0.00  0.00     0.075 H 
ATOM     83  C28 non d ame      -7.955   6.545  64.053  0.00  0.00     0.193 C 
ATOM     84  H42 non d ame      -7.880   4.405  64.340  0.00  0.00     0.280 HD
ATOM     85  H43 non d ame      -9.449   5.109  64.661  0.00  0.00     0.280 HD
ATOM     86  H44 non d ame      -8.679   7.317  63.792  0.00  0.00     0.129 H 
ATOM     87  H37 non d ame      -7.822   8.098  64.934  0.00  0.00     0.046 H 
BRANCH  83  88
ATOM     88  O6  non d ame      -7.222   6.287  62.854  0.00  0.00    -0.369 OA
ATOM     89  H45 non d ame      -6.282   6.331  63.038  0.00  0.00     0.212 HD
ENDBRANCH  83  88
ENDBRANCH  72  75
ENDBRANCH  47  72
ENDBRANCH  45  47
ENDBRANCH   1  43
BRANCH   1  90
ATOM     90  C16 non d ame      -7.980  10.599  67.409  0.00  0.00    -0.035 C 
ATOM     91  H21 non d ame      -8.652  11.400  67.717  0.00  0.00     0.037 H 
ATOM     92  H22 non d ame      -8.092  10.141  66.427  0.00  0.00     0.037 H 
BRANCH  90  93
ATOM     93  C17 non d ame      -8.156   9.451  68.454  0.00  0.00    -0.059 C 
ATOM     94  H23 non d ame      -7.509   8.627  68.151  0.00  0.00     0.038 H 
BRANCH  93  95
ATOM     95  C18 non d ame      -7.729   9.890  69.890  0.00  0.00    -0.073 C 
ATOM     96  H24 non d ame      -8.001  10.934  70.047  0.00  0.00     0.028 H 
ATOM     97  H25 non d ame      -8.238   9.268  70.627  0.00  0.00     0.028 H 
ATOM     98  H26 non d ame      -6.651   9.775  70.001  0.00  0.00     0.028 H 
ENDBRANCH  93  95
BRANCH  93  99
ATOM     99  C19 non d ame      -9.593   8.924  68.450  0.00  0.00    -0.073 C 
ATOM    100  H27 non d ame      -9.891   8.675  69.468  0.00  0.00     0.028 H 
ATOM    101  H28 non d ame     -10.260   9.690  68.053  0.00  0.00     0.028 H 
ATOM    102  H29 non d ame      -9.651   8.033  67.826  0.00  0.00     0.028 H 
ENDBRANCH  93  99
ENDBRANCH  90  93
ENDBRANCH   1  90
TORSDOF 26
ENDMDL
MODEL 17
REMARK VINA RESULT:      -6.6      3.896      9.714
REMARK  26 active torsions:
REMARK  status: ('A' for Active; 'I' for Inactive)
REMARK    1  A    between atoms: C2_2  and  C3_3 
REMARK    2  A    between atoms: C4_6  and  C5_7 
REMARK       I    between atoms: C5_7  and  N2_9 
REMARK    3  A    between atoms: N2_9  and  C6_10 
REMARK    4  A    between atoms: C6_10  and  C7_11 
REMARK    5  A    between atoms: C6_10  and  C8_13 
REMARK       I    between atoms: C7_11  and  N3_14 
REMARK    6  A    between atoms: N3_14  and  C9_15 
REMARK    7  A    between atoms: C9_15  and  C10_16 
REMARK    8  A    between atoms: C9_15  and  C11_18 
REMARK       I    between atoms: C10_16  and  N4_21 
REMARK    9  A    between atoms: C11_18  and  C12_19 
REMARK   10  A    between atoms: C11_18  and  C13_20 
REMARK   11  A    between atoms: N4_21  and  C14_22 
REMARK   12  A    between atoms: C14_22  and  C15_23 
REMARK   13  A    between atoms: C14_22  and  C16_25 
REMARK       I    between atoms: C15_23  and  N6_40 
REMARK   14  A    between atoms: C16_25  and  C17_26 
REMARK   15  A    between atoms: C17_26  and  C18_27 
REMARK   16  A    between atoms: C17_26  and  C19_28 
REMARK   17  A    between atoms: C20_29  and  C21_30 
REMARK   18  A    between atoms: C20_29  and  C24_33 
REMARK   19  A    between atoms: C20_29  and  N6_40 
REMARK   20  A    between atoms: C21_30  and  C22_31 
REMARK   21  A    between atoms: C22_31  and  C23_32 
REMARK   22  A    between atoms: C23_32  and  O8_43 
REMARK   23  A    between atoms: C24_33  and  C25_34 
REMARK   24  A    between atoms: C28_38  and  O6_39 
REMARK   25  A    between atoms: C29_42  and  O8_43 
REMARK   26  A    between atoms: C29_42  and  C35_49 
ROOT
ATOM      1  C14 non d ame     -10.005  10.528  63.938  0.00  0.00     0.089 C 
ATOM      2  H20 non d ame     -10.980  10.071  64.109  0.00  0.00     0.087 H 
ENDROOT
BRANCH   1   3
ATOM      3  N4  non d ame      -9.457  10.892  65.236  0.00  0.00    -0.346 N 
ATOM      4  C10 non d ame      -9.778  10.066  66.457  0.00  0.00     0.241 C 
ATOM      5  O4  non d ame     -10.483   9.115  66.370  0.00  0.00    -0.271 OA
ATOM      6  H19 non d ame      -8.861  11.707  65.289  0.00  0.00     0.163 HD
BRANCH   4   7
ATOM      7  C9  non d ame      -9.198  10.454  67.791  0.00  0.00     0.092 C 
ATOM      8  H11 non d ame      -8.113  10.523  67.705  0.00  0.00     0.088 H 
BRANCH   7   9
ATOM      9  N3  non d ame      -9.686  11.783  68.170  0.00  0.00    -0.346 N 
ATOM     10  C7  non d ame      -9.009  12.964  67.694  0.00  0.00     0.240 C 
ATOM     11  O3  non d ame      -8.067  12.862  67.006  0.00  0.00    -0.271 OA
ATOM     12  H10 non d ame     -10.496  11.886  68.764  0.00  0.00     0.163 HD
BRANCH  10  13
ATOM     13  C6  non d ame      -9.532  14.375  68.103  0.00  0.00     0.086 C 
ATOM     14  H6  non d ame     -10.323  14.739  67.447  0.00  0.00     0.086 H 
BRANCH  13  15
ATOM     15  N2  non d ame     -10.102  14.297  69.437  0.00  0.00    -0.343 N 
ATOM     16  C5  non d ame     -11.362  14.987  69.724  0.00  0.00     0.273 C 
ATOM     17  O2  non d ame     -11.907  15.604  68.876  0.00  0.00    -0.266 OA
ATOM     18  H5  non d ame      -9.630  13.770  70.157  0.00  0.00     0.163 HD
BRANCH  16  19
ATOM     19  C4  non d ame     -11.978  14.912  71.130  0.00  0.00     0.154 A 
ATOM     20  C1  non d ame     -11.795  15.839  72.205  0.00  0.00    -0.017 A 
ATOM     21  C2  non d ame     -12.567  15.321  73.268  0.00  0.00     0.077 A 
ATOM     22  H1  non d ame     -11.194  16.749  72.213  0.00  0.00     0.091 H 
ATOM     23  O1  non d ame     -13.126  14.225  72.843  0.00  0.00    -0.218 OA
ATOM     24  N1  non d ame     -12.796  13.965  71.598  0.00  0.00    -0.123 NA
BRANCH  21  25
ATOM     25  C3  non d ame     -12.720  15.933  74.654  0.00  0.00    -0.029 C 
ATOM     26  H2  non d ame     -13.530  15.432  75.186  0.00  0.00     0.036 H 
ATOM     27  H3  non d ame     -11.790  15.810  75.209  0.00  0.00     0.036 H 
ATOM     28  H4  non d ame     -12.949  16.995  74.560  0.00  0.00     0.036 H 
ENDBRANCH  21  25
ENDBRANCH  16  19
ENDBRANCH  13  15
BRANCH  13  29
ATOM     29  C8  non d ame      -8.392  15.361  68.086  0.00  0.00    -0.049 C 
ATOM     30  H7  non d ame      -7.474  14.852  67.794  0.00  0.00     0.030 H 
ATOM     31  H8  non d ame      -8.610  16.156  67.370  0.00  0.00     0.030 H 
ATOM     32  H9  non d ame      -8.268  15.791  69.079  0.00  0.00     0.030 H 
ENDBRANCH  13  29
ENDBRANCH  10  13
ENDBRANCH   7   9
BRANCH   7  33
ATOM     33  C11 non d ame      -9.634   9.417  68.868  0.00  0.00    -0.033 C 
ATOM     34  H12 non d ame     -10.208   8.641  68.362  0.00  0.00     0.042 H 
BRANCH  33  35
ATOM     35  C12 non d ame      -8.399   8.731  69.530  0.00  0.00    -0.071 C 
ATOM     36  H13 non d ame      -8.425   8.898  70.607  0.00  0.00     0.028 H 
ATOM     37  H14 non d ame      -8.426   7.661  69.328  0.00  0.00     0.028 H 
ATOM     38  H15 non d ame      -7.484   9.156  69.118  0.00  0.00     0.028 H 
ENDBRANCH  33  35
BRANCH  33  39
ATOM     39  C13 non d ame     -10.557  10.080  69.940  0.00  0.00    -0.071 C 
ATOM     40  H16 non d ame     -10.294   9.703  70.928  0.00  0.00     0.028 H 
ATOM     41  H17 non d ame     -10.424  11.162  69.916  0.00  0.00     0.028 H 
ATOM     42  H18 non d ame     -11.597   9.837  69.723  0.00  0.00     0.028 H 
ENDBRANCH  33  39
ENDBRANCH   7  33
ENDBRANCH   4   7
ENDBRANCH   1   3
BRANCH   1  43
ATOM     43  C15 non d ame      -9.015   9.554  63.238  0.00  0.00     0.240 C 
ATOM     44  O5  non d ame      -8.563   9.834  62.174  0.00  0.00    -0.271 OA
ATOM     45  N6  non d ame      -8.622   8.276  63.896  0.00  0.00    -0.355 N 
ATOM     46  H46 non d ame      -8.995   8.029  64.802  0.00  0.00     0.162 HD
BRANCH  45  47
ATOM     47  C20 non d ame      -7.678   7.362  63.218  0.00  0.00     0.013 C 
ATOM     48  H30 non d ame      -7.877   7.409  62.147  0.00  0.00     0.072 H 
BRANCH  47  49
ATOM     49  C21 non d ame      -7.897   5.953  63.721  0.00  0.00    -0.038 C 
ATOM     50  H31 non d ame      -8.630   5.509  63.047  0.00  0.00     0.036 H 
ATOM     51  H32 non d ame      -6.902   5.515  63.811  0.00  0.00     0.036 H 
BRANCH  49  52
ATOM     52  C22 non d ame      -8.520   5.911  65.133  0.00  0.00     0.018 C 
ATOM     53  H33 non d ame      -8.524   6.943  65.486  0.00  0.00     0.048 H 
ATOM     54  H34 non d ame      -9.459   5.368  65.026  0.00  0.00     0.048 H 
BRANCH  52  55
ATOM     55  C23 non d ame      -7.677   5.111  66.165  0.00  0.00     0.259 C 
ATOM     56  O7  non d ame      -6.532   4.876  65.955  0.00  0.00    -0.265 OA
BRANCH  55  57
ATOM     57  O8  non d ame      -8.294   4.648  67.360  0.00  0.00    -0.317 OA
BRANCH  57  58
ATOM     58  C29 non d ame      -9.722   4.735  67.352  0.00  0.00     0.052 C 
ATOM     59  H47 non d ame      -9.965   5.523  66.640  0.00  0.00     0.082 H 
ATOM     60  H48 non d ame     -10.077   3.718  67.181  0.00  0.00     0.082 H 
BRANCH  58  61
ATOM     61  C35 non d ame     -10.183   5.186  68.763  0.00  0.00    -0.034 A 
ATOM     62  C30 non d ame     -11.193   6.133  68.895  0.00  0.00    -0.075 A 
ATOM     63  C31 non d ame     -11.608   6.539  70.163  0.00  0.00    -0.082 A 
ATOM     64  H49 non d ame     -11.660   6.556  68.007  0.00  0.00     0.084 H 
ATOM     65  C32 non d ame     -11.006   5.995  71.301  0.00  0.00    -0.083 A 
ATOM     66  H50 non d ame     -12.401   7.279  70.263  0.00  0.00     0.083 H 
ATOM     67  C33 non d ame      -9.995   5.053  71.164  0.00  0.00    -0.082 A 
ATOM     68  H51 non d ame     -11.324   6.307  72.296  0.00  0.00     0.083 H 
ATOM     69  C34 non d ame      -9.580   4.643  69.899  0.00  0.00    -0.075 A 
ATOM     70  H52 non d ame      -9.525   4.633  72.054  0.00  0.00     0.083 H 
ATOM     71  H53 non d ame      -8.785   3.902  69.799  0.00  0.00     0.084 H 
ENDBRANCH  58  61
ENDBRANCH  57  58
ENDBRANCH  55  57
ENDBRANCH  52  55
ENDBRANCH  49  52
ENDBRANCH  47  49
BRANCH  47  72
ATOM     72  C24 non d ame      -6.242   7.791  63.511  0.00  0.00    -0.039 C 
ATOM     73  H35 non d ame      -5.692   6.866  63.682  0.00  0.00     0.036 H 
ATOM     74  H36 non d ame      -5.961   8.447  62.687  0.00  0.00     0.036 H 
BRANCH  72  75
ATOM     75  C25 non d ame      -6.145   8.655  64.857  0.00  0.00    -0.001 C 
ATOM     76  C26 non d ame      -5.684  10.193  64.504  0.00  0.00    -0.035 C 
ATOM     77  C27 non d ame      -4.631  10.524  65.288  0.00  0.00     0.085 C 
ATOM     78  H38 non d ame      -5.273  10.237  63.495  0.00  0.00     0.036 H 
ATOM     79  H39 non d ame      -6.460  10.896  64.808  0.00  0.00     0.036 H 
ATOM     80  N5  non d ame      -4.125   9.246  65.912  0.00  0.00    -0.049 N 
ATOM     81  H40 non d ame      -3.872  10.913  64.609  0.00  0.00     0.075 H 
ATOM     82  H41 non d ame      -5.041  11.162  66.071  0.00  0.00     0.075 H 
ATOM     83  C28 non d ame      -5.286   8.147  65.677  0.00  0.00     0.193 C 
ATOM     84  H42 non d ame      -3.311   8.971  65.381  0.00  0.00     0.280 HD
ATOM     85  H43 non d ame      -4.046   9.422  66.903  0.00  0.00     0.280 HD
ATOM     86  H44 non d ame      -5.942   7.852  66.495  0.00  0.00     0.129 H 
ATOM     87  H37 non d ame      -7.024   8.533  65.489  0.00  0.00     0.046 H 
BRANCH  83  88
ATOM     88  O6  non d ame      -4.720   6.933  65.182  0.00  0.00    -0.369 OA
ATOM     89  H45 non d ame      -5.113   6.720  64.333  0.00  0.00     0.212 HD
ENDBRANCH  83  88
ENDBRANCH  72  75
ENDBRANCH  47  72
ENDBRANCH  45  47
ENDBRANCH   1  43
BRANCH   1  90
ATOM     90  C16 non d ame     -10.167  11.785  63.097  0.00  0.00    -0.035 C 
ATOM     91  H21 non d ame      -9.273  12.378  63.291  0.00  0.00     0.037 H 
ATOM     92  H22 non d ame     -10.377  11.432  62.088  0.00  0.00     0.037 H 
BRANCH  90  93
ATOM     93  C17 non d ame     -11.382  12.669  63.519  0.00  0.00    -0.059 C 
ATOM     94  H23 non d ame     -11.591  13.357  62.700  0.00  0.00     0.038 H 
BRANCH  93  95
ATOM     95  C18 non d ame     -12.670  11.821  63.770  0.00  0.00    -0.073 C 
ATOM     96  H24 non d ame     -13.142  11.587  62.815  0.00  0.00     0.028 H 
ATOM     97  H25 non d ame     -12.402  10.895  64.278  0.00  0.00     0.028 H 
ATOM     98  H26 non d ame     -13.364  12.388  64.390  0.00  0.00     0.028 H 
ENDBRANCH  93  95
BRANCH  93  99
ATOM     99  C19 non d ame     -11.041  13.517  64.748  0.00  0.00    -0.073 C 
ATOM    100  H27 non d ame     -10.501  14.410  64.433  0.00  0.00     0.028 H 
ATOM    101  H28 non d ame     -11.960  13.807  65.256  0.00  0.00     0.028 H 
ATOM    102  H29 non d ame     -10.417  12.937  65.427  0.00  0.00     0.028 H 
ENDBRANCH  93  99
ENDBRANCH  90  93
ENDBRANCH   1  90
TORSDOF 26
ENDMDL
MODEL 18
REMARK VINA RESULT:      -6.6      2.234      5.540
REMARK  26 active torsions:
REMARK  status: ('A' for Active; 'I' for Inactive)
REMARK    1  A    between atoms: C2_2  and  C3_3 
REMARK    2  A    between atoms: C4_6  and  C5_7 
REMARK       I    between atoms: C5_7  and  N2_9 
REMARK    3  A    between atoms: N2_9  and  C6_10 
REMARK    4  A    between atoms: C6_10  and  C7_11 
REMARK    5  A    between atoms: C6_10  and  C8_13 
REMARK       I    between atoms: C7_11  and  N3_14 
REMARK    6  A    between atoms: N3_14  and  C9_15 
REMARK    7  A    between atoms: C9_15  and  C10_16 
REMARK    8  A    between atoms: C9_15  and  C11_18 
REMARK       I    between atoms: C10_16  and  N4_21 
REMARK    9  A    between atoms: C11_18  and  C12_19 
REMARK   10  A    between atoms: C11_18  and  C13_20 
REMARK   11  A    between atoms: N4_21  and  C14_22 
REMARK   12  A    between atoms: C14_22  and  C15_23 
REMARK   13  A    between atoms: C14_22  and  C16_25 
REMARK       I    between atoms: C15_23  and  N6_40 
REMARK   14  A    between atoms: C16_25  and  C17_26 
REMARK   15  A    between atoms: C17_26  and  C18_27 
REMARK   16  A    between atoms: C17_26  and  C19_28 
REMARK   17  A    between atoms: C20_29  and  C21_30 
REMARK   18  A    between atoms: C20_29  and  C24_33 
REMARK   19  A    between atoms: C20_29  and  N6_40 
REMARK   20  A    between atoms: C21_30  and  C22_31 
REMARK   21  A    between atoms: C22_31  and  C23_32 
REMARK   22  A    between atoms: C23_32  and  O8_43 
REMARK   23  A    between atoms: C24_33  and  C25_34 
REMARK   24  A    between atoms: C28_38  and  O6_39 
REMARK   25  A    between atoms: C29_42  and  O8_43 
REMARK   26  A    between atoms: C29_42  and  C35_49 
ROOT
ATOM      1  C14 non d ame      -7.640  10.303  69.082  0.00  0.00     0.089 C 
ATOM      2  H20 non d ame      -7.585  10.747  70.075  0.00  0.00     0.087 H 
ENDROOT
BRANCH   1   3
ATOM      3  N4  non d ame      -8.498   9.131  69.170  0.00  0.00    -0.346 N 
ATOM      4  C10 non d ame      -9.067   8.703  70.500  0.00  0.00     0.241 C 
ATOM      5  O4  non d ame      -8.817   9.316  71.485  0.00  0.00    -0.271 OA
ATOM      6  H19 non d ame      -8.697   8.622  68.320  0.00  0.00     0.163 HD
BRANCH   4   7
ATOM      7  C9  non d ame      -9.959   7.491  70.573  0.00  0.00     0.092 C 
ATOM      8  H11 non d ame      -9.677   6.890  71.437  0.00  0.00     0.088 H 
BRANCH   7   9
ATOM      9  N3  non d ame     -11.347   7.917  70.776  0.00  0.00    -0.346 N 
ATOM     10  C7  non d ame     -11.900   7.963  72.107  0.00  0.00     0.240 C 
ATOM     11  O3  non d ame     -11.242   7.658  73.026  0.00  0.00    -0.271 OA
ATOM     12  H10 non d ame     -11.926   8.181  69.993  0.00  0.00     0.163 HD
BRANCH  10  13
ATOM     13  C6  non d ame     -13.379   8.413  72.316  0.00  0.00     0.086 C 
ATOM     14  H6  non d ame     -13.842   7.951  73.188  0.00  0.00     0.086 H 
BRANCH  13  15
ATOM     15  N2  non d ame     -13.406   9.849  72.544  0.00  0.00    -0.343 N 
ATOM     16  C5  non d ame     -13.086  10.759  71.442  0.00  0.00     0.273 C 
ATOM     17  O2  non d ame     -12.806  10.327  70.378  0.00  0.00    -0.266 OA
ATOM     18  H5  non d ame     -13.644  10.210  73.456  0.00  0.00     0.163 HD
BRANCH  16  19
ATOM     19  C4  non d ame     -13.112  12.279  71.667  0.00  0.00     0.154 A 
ATOM     20  C1  non d ame     -12.382  13.274  70.941  0.00  0.00    -0.017 A 
ATOM     21  C2  non d ame     -12.754  14.502  71.533  0.00  0.00     0.077 A 
ATOM     22  H1  non d ame     -11.689  13.127  70.113  0.00  0.00     0.091 H 
ATOM     23  O1  non d ame     -13.601  14.233  72.484  0.00  0.00    -0.218 OA
ATOM     24  N1  non d ame     -13.825  12.942  72.582  0.00  0.00    -0.123 NA
BRANCH  21  25
ATOM     25  C3  non d ame     -12.258  15.883  71.129  0.00  0.00    -0.029 C 
ATOM     26  H2  non d ame     -11.459  15.783  70.393  0.00  0.00     0.036 H 
ATOM     27  H3  non d ame     -13.081  16.452  70.696  0.00  0.00     0.036 H 
ATOM     28  H4  non d ame     -11.879  16.406  72.008  0.00  0.00     0.036 H 
ENDBRANCH  21  25
ENDBRANCH  16  19
ENDBRANCH  13  15
BRANCH  13  29
ATOM     29  C8  non d ame     -14.190   8.070  71.093  0.00  0.00    -0.049 C 
ATOM     30  H7  non d ame     -13.548   8.089  70.213  0.00  0.00     0.030 H 
ATOM     31  H8  non d ame     -14.617   7.072  71.209  0.00  0.00     0.030 H 
ATOM     32  H9  non d ame     -14.992   8.797  70.973  0.00  0.00     0.030 H 
ENDBRANCH  13  29
ENDBRANCH  10  13
ENDBRANCH   7   9
BRANCH   7  33
ATOM     33  C11 non d ame      -9.854   6.689  69.243  0.00  0.00    -0.033 C 
ATOM     34  H12 non d ame      -9.254   7.279  68.549  0.00  0.00     0.042 H 
BRANCH  33  35
ATOM     35  C12 non d ame      -9.121   5.328  69.456  0.00  0.00    -0.071 C 
ATOM     36  H13 non d ame      -8.307   5.462  70.169  0.00  0.00     0.028 H 
ATOM     37  H14 non d ame      -9.826   4.592  69.844  0.00  0.00     0.028 H 
ATOM     38  H15 non d ame      -8.719   4.980  68.505  0.00  0.00     0.028 H 
ENDBRANCH  33  35
BRANCH  33  39
ATOM     39  C13 non d ame     -11.265   6.479  68.604  0.00  0.00    -0.071 C 
ATOM     40  H16 non d ame     -11.325   7.031  67.667  0.00  0.00     0.028 H 
ATOM     41  H17 non d ame     -11.423   5.417  68.413  0.00  0.00     0.028 H 
ATOM     42  H18 non d ame     -12.030   6.842  69.290  0.00  0.00     0.028 H 
ENDBRANCH  33  39
ENDBRANCH   7  33
ENDBRANCH   4   7
ENDBRANCH   1   3
BRANCH   1  43
ATOM     43  C15 non d ame      -8.243  11.281  68.033  0.00  0.00     0.240 C 
ATOM     44  O5  non d ame      -7.741  11.379  66.959  0.00  0.00    -0.271 OA
ATOM     45  N6  non d ame      -9.451  12.089  68.363  0.00  0.00    -0.355 N 
ATOM     46  H46 non d ame      -9.888  12.011  69.271  0.00  0.00     0.162 HD
BRANCH  45  47
ATOM     47  C20 non d ame     -10.013  13.013  67.355  0.00  0.00     0.013 C 
ATOM     48  H30 non d ame      -9.505  12.825  66.409  0.00  0.00     0.072 H 
BRANCH  47  49
ATOM     49  C21 non d ame      -9.773  14.440  67.795  0.00  0.00    -0.038 C 
ATOM     50  H31 non d ame     -10.757  14.908  67.825  0.00  0.00     0.036 H 
ATOM     51  H32 non d ame      -9.173  14.370  68.704  0.00  0.00     0.036 H 
BRANCH  49  52
ATOM     52  C22 non d ame      -8.934  15.247  66.781  0.00  0.00     0.018 C 
ATOM     53  H33 non d ame      -8.342  15.944  67.375  0.00  0.00     0.048 H 
ATOM     54  H34 non d ame      -8.437  14.507  66.153  0.00  0.00     0.048 H 
BRANCH  52  55
ATOM     55  C23 non d ame      -9.787  16.122  65.820  0.00  0.00     0.259 C 
ATOM     56  O7  non d ame     -10.435  15.618  64.962  0.00  0.00    -0.265 OA
BRANCH  55  57
ATOM     57  O8  non d ame      -9.775  17.536  65.969  0.00  0.00    -0.317 OA
BRANCH  57  58
ATOM     58  C29 non d ame      -9.664  17.979  67.325  0.00  0.00     0.052 C 
ATOM     59  H47 non d ame     -10.565  18.561  67.520  0.00  0.00     0.082 H 
ATOM     60  H48 non d ame      -9.456  17.084  67.911  0.00  0.00     0.082 H 
BRANCH  58  61
ATOM     61  C35 non d ame      -8.438  18.925  67.421  0.00  0.00    -0.034 A 
ATOM     62  C30 non d ame      -7.836  19.162  68.652  0.00  0.00    -0.075 A 
ATOM     63  C31 non d ame      -6.734  20.011  68.739  0.00  0.00    -0.082 A 
ATOM     64  H49 non d ame      -8.226  18.681  69.549  0.00  0.00     0.084 H 
ATOM     65  C32 non d ame      -6.237  20.628  67.588  0.00  0.00    -0.083 A 
ATOM     66  H50 non d ame      -6.264  20.193  69.705  0.00  0.00     0.083 H 
ATOM     67  C33 non d ame      -6.843  20.392  66.361  0.00  0.00    -0.082 A 
ATOM     68  H51 non d ame      -5.376  21.294  67.647  0.00  0.00     0.083 H 
ATOM     69  C34 non d ame      -7.943  19.541  66.270  0.00  0.00    -0.075 A 
ATOM     70  H52 non d ame      -6.453  20.877  65.466  0.00  0.00     0.083 H 
ATOM     71  H53 non d ame      -8.413  19.360  65.303  0.00  0.00     0.084 H 
ENDBRANCH  58  61
ENDBRANCH  57  58
ENDBRANCH  55  57
ENDBRANCH  52  55
ENDBRANCH  49  52
ENDBRANCH  47  49
BRANCH  47  72
ATOM     72  C24 non d ame     -11.513  12.769  67.211  0.00  0.00    -0.039 C 
ATOM     73  H35 non d ame     -11.761  12.028  67.970  0.00  0.00     0.036 H 
ATOM     74  H36 non d ame     -11.973  13.757  67.244  0.00  0.00     0.036 H 
BRANCH  72  75
ATOM     75  C25 non d ame     -11.875  12.127  65.788  0.00  0.00    -0.001 C 
ATOM     76  C26 non d ame     -10.496  11.772  64.966  0.00  0.00    -0.035 C 
ATOM     77  C27 non d ame     -10.575  12.313  63.727  0.00  0.00     0.085 C 
ATOM     78  H38 non d ame      -9.649  12.290  65.416  0.00  0.00     0.036 H 
ATOM     79  H39 non d ame     -10.440  10.701  64.774  0.00  0.00     0.036 H 
ATOM     80  N5  non d ame     -11.735  13.278  63.739  0.00  0.00    -0.049 N 
ATOM     81  H40 non d ame      -9.648  12.873  63.593  0.00  0.00     0.075 H 
ATOM     82  H41 non d ame     -10.811  11.483  63.062  0.00  0.00     0.075 H 
ATOM     83  C28 non d ame     -12.579  12.941  65.074  0.00  0.00     0.193 C 
ATOM     84  H42 non d ame     -11.338  14.202  63.834  0.00  0.00     0.280 HD
ATOM     85  H43 non d ame     -12.303  13.053  62.935  0.00  0.00     0.280 HD
ATOM     86  H44 non d ame     -13.518  12.390  65.011  0.00  0.00     0.129 H 
ATOM     87  H37 non d ame     -12.621  11.337  65.870  0.00  0.00     0.046 H 
BRANCH  83  88
ATOM     88  O6  non d ame     -12.890  14.145  65.777  0.00  0.00    -0.369 OA
ATOM     89  H45 non d ame     -13.130  13.935  66.681  0.00  0.00     0.212 HD
ENDBRANCH  83  88
ENDBRANCH  72  75
ENDBRANCH  47  72
ENDBRANCH  45  47
ENDBRANCH   1  43
BRANCH   1  90
ATOM     90  C16 non d ame      -6.252   9.868  68.636  0.00  0.00    -0.035 C 
ATOM     91  H21 non d ame      -6.244   9.993  67.553  0.00  0.00     0.037 H 
ATOM     92  H22 non d ame      -5.559  10.438  69.254  0.00  0.00     0.037 H 
BRANCH  90  93
ATOM     93  C17 non d ame      -5.950   8.360  68.908  0.00  0.00    -0.059 C 
ATOM     94  H23 non d ame      -6.902   7.831  68.926  0.00  0.00     0.038 H 
BRANCH  93  95
ATOM     95  C18 non d ame      -5.071   7.723  67.786  0.00  0.00    -0.073 C 
ATOM     96  H24 non d ame      -5.715   7.337  66.995  0.00  0.00     0.028 H 
ATOM     97  H25 non d ame      -4.404   8.479  67.372  0.00  0.00     0.028 H 
ATOM     98  H26 non d ame      -4.481   6.908  68.204  0.00  0.00     0.028 H 
ENDBRANCH  93  95
BRANCH  93  99
ATOM     99  C19 non d ame      -5.301   8.173  70.282  0.00  0.00    -0.073 C 
ATOM    100  H27 non d ame      -4.287   8.572  70.262  0.00  0.00     0.028 H 
ATOM    101  H28 non d ame      -5.885   8.701  71.035  0.00  0.00     0.028 H 
ATOM    102  H29 non d ame      -5.268   7.111  70.525  0.00  0.00     0.028 H 
ENDBRANCH  93  99
ENDBRANCH  90  93
ENDBRANCH   1  90
TORSDOF 26
ENDMDL
MODEL 19
REMARK VINA RESULT:      -6.5      2.637      6.792
REMARK  26 active torsions:
REMARK  status: ('A' for Active; 'I' for Inactive)
REMARK    1  A    between atoms: C2_2  and  C3_3 
REMARK    2  A    between atoms: C4_6  and  C5_7 
REMARK       I    between atoms: C5_7  and  N2_9 
REMARK    3  A    between atoms: N2_9  and  C6_10 
REMARK    4  A    between atoms: C6_10  and  C7_11 
REMARK    5  A    between atoms: C6_10  and  C8_13 
REMARK       I    between atoms: C7_11  and  N3_14 
REMARK    6  A    between atoms: N3_14  and  C9_15 
REMARK    7  A    between atoms: C9_15  and  C10_16 
REMARK    8  A    between atoms: C9_15  and  C11_18 
REMARK       I    between atoms: C10_16  and  N4_21 
REMARK    9  A    between atoms: C11_18  and  C12_19 
REMARK   10  A    between atoms: C11_18  and  C13_20 
REMARK   11  A    between atoms: N4_21  and  C14_22 
REMARK   12  A    between atoms: C14_22  and  C15_23 
REMARK   13  A    between atoms: C14_22  and  C16_25 
REMARK       I    between atoms: C15_23  and  N6_40 
REMARK   14  A    between atoms: C16_25  and  C17_26 
REMARK   15  A    between atoms: C17_26  and  C18_27 
REMARK   16  A    between atoms: C17_26  and  C19_28 
REMARK   17  A    between atoms: C20_29  and  C21_30 
REMARK   18  A    between atoms: C20_29  and  C24_33 
REMARK   19  A    between atoms: C20_29  and  N6_40 
REMARK   20  A    between atoms: C21_30  and  C22_31 
REMARK   21  A    between atoms: C22_31  and  C23_32 
REMARK   22  A    between atoms: C23_32  and  O8_43 
REMARK   23  A    between atoms: C24_33  and  C25_34 
REMARK   24  A    between atoms: C28_38  and  O6_39 
REMARK   25  A    between atoms: C29_42  and  O8_43 
REMARK   26  A    between atoms: C29_42  and  C35_49 
ROOT
ATOM      1  C14 non d ame      -9.283  11.028  66.905  0.00  0.00     0.089 C 
ATOM      2  H20 non d ame      -8.400  11.361  67.452  0.00  0.00     0.087 H 
ENDROOT
BRANCH   1   3
ATOM      3  N4  non d ame      -9.352   9.579  67.023  0.00  0.00    -0.346 N 
ATOM      4  C10 non d ame      -8.089   8.765  67.152  0.00  0.00     0.241 C 
ATOM      5  O4  non d ame      -7.029   9.298  67.157  0.00  0.00    -0.271 OA
ATOM      6  H19 non d ame     -10.264   9.145  67.015  0.00  0.00     0.163 HD
BRANCH   4   7
ATOM      7  C9  non d ame      -8.179   7.267  67.279  0.00  0.00     0.092 C 
ATOM      8  H11 non d ame      -7.179   6.840  67.211  0.00  0.00     0.088 H 
BRANCH   7   9
ATOM      9  N3  non d ame      -8.709   6.918  68.601  0.00  0.00    -0.346 N 
ATOM     10  C7  non d ame      -7.808   6.725  69.710  0.00  0.00     0.240 C 
ATOM     11  O3  non d ame      -6.654   6.844  69.557  0.00  0.00    -0.271 OA
ATOM     12  H10 non d ame      -9.702   6.810  68.748  0.00  0.00     0.163 HD
BRANCH  10  13
ATOM     13  C6  non d ame      -8.378   6.351  71.114  0.00  0.00     0.086 C 
ATOM     14  H6  non d ame      -7.883   6.884  71.926  0.00  0.00     0.086 H 
BRANCH  13  15
ATOM     15  N2  non d ame      -9.782   6.723  71.167  0.00  0.00    -0.343 N 
ATOM     16  C5  non d ame     -10.160   8.038  71.690  0.00  0.00     0.273 C 
ATOM     17  O2  non d ame      -9.328   8.787  72.068  0.00  0.00    -0.266 OA
ATOM     18  H5  non d ame     -10.487   6.076  70.844  0.00  0.00     0.163 HD
BRANCH  16  19
ATOM     19  C4  non d ame     -11.640   8.446  71.750  0.00  0.00     0.154 A 
ATOM     20  C1  non d ame     -12.777   7.577  71.740  0.00  0.00    -0.017 A 
ATOM     21  C2  non d ame     -13.895   8.439  71.811  0.00  0.00     0.077 A 
ATOM     22  H1  non d ame     -12.791   6.488  71.688  0.00  0.00     0.091 H 
ATOM     23  O1  non d ame     -13.441   9.658  71.859  0.00  0.00    -0.218 OA
ATOM     24  N1  non d ame     -12.128   9.687  71.823  0.00  0.00    -0.123 NA
BRANCH  21  25
ATOM     25  C3  non d ame     -15.358   8.019  71.832  0.00  0.00    -0.029 C 
ATOM     26  H2  non d ame     -15.526   7.247  71.079  0.00  0.00     0.036 H 
ATOM     27  H3  non d ame     -15.609   7.626  72.817  0.00  0.00     0.036 H 
ATOM     28  H4  non d ame     -15.988   8.881  71.613  0.00  0.00     0.036 H 
ENDBRANCH  21  25
ENDBRANCH  16  19
ENDBRANCH  13  15
BRANCH  13  29
ATOM     29  C8  non d ame      -8.228   4.868  71.341  0.00  0.00    -0.049 C 
ATOM     30  H7  non d ame      -9.131   4.480  71.813  0.00  0.00     0.030 H 
ATOM     31  H8  non d ame      -8.075   4.368  70.384  0.00  0.00     0.030 H 
ATOM     32  H9  non d ame      -7.373   4.685  71.990  0.00  0.00     0.030 H 
ENDBRANCH  13  29
ENDBRANCH  10  13
ENDBRANCH   7   9
BRANCH   7  33
ATOM     33  C11 non d ame      -9.129   6.709  66.179  0.00  0.00    -0.033 C 
ATOM     34  H12 non d ame      -9.431   7.547  65.549  0.00  0.00     0.042 H 
BRANCH  33  35
ATOM     35  C12 non d ame      -8.398   5.676  65.266  0.00  0.00    -0.071 C 
ATOM     36  H13 non d ame      -8.547   4.672  65.662  0.00  0.00     0.028 H 
ATOM     37  H14 non d ame      -8.804   5.732  64.256  0.00  0.00     0.028 H 
ATOM     38  H15 non d ame      -7.333   5.904  65.242  0.00  0.00     0.028 H 
ENDBRANCH  33  35
BRANCH  33  39
ATOM     39  C13 non d ame     -10.418   6.093  66.813  0.00  0.00    -0.071 C 
ATOM     40  H16 non d ame     -10.139   5.285  67.488  0.00  0.00     0.028 H 
ATOM     41  H17 non d ame     -10.954   6.863  67.367  0.00  0.00     0.028 H 
ATOM     42  H18 non d ame     -11.058   5.701  66.023  0.00  0.00     0.028 H 
ENDBRANCH  33  39
ENDBRANCH   7  33
ENDBRANCH   4   7
ENDBRANCH   1   3
BRANCH   1  43
ATOM     43  C15 non d ame     -10.594  11.635  67.482  0.00  0.00     0.240 C 
ATOM     44  O5  non d ame     -11.627  11.064  67.330  0.00  0.00    -0.271 OA
ATOM     45  N6  non d ame     -10.563  12.923  68.231  0.00  0.00    -0.355 N 
ATOM     46  H46 non d ame      -9.692  13.415  68.370  0.00  0.00     0.162 HD
BRANCH  45  47
ATOM     47  C20 non d ame     -11.818  13.486  68.774  0.00  0.00     0.013 C 
ATOM     48  H30 non d ame     -12.643  12.866  68.422  0.00  0.00     0.072 H 
BRANCH  47  49
ATOM     49  C21 non d ame     -11.988  14.903  68.275  0.00  0.00    -0.038 C 
ATOM     50  H31 non d ame     -12.662  14.836  67.420  0.00  0.00     0.036 H 
ATOM     51  H32 non d ame     -12.273  15.490  69.149  0.00  0.00     0.036 H 
BRANCH  49  52
ATOM     52  C22 non d ame     -10.672  15.515  67.748  0.00  0.00     0.018 C 
ATOM     53  H33 non d ame     -10.679  16.556  68.073  0.00  0.00     0.048 H 
ATOM     54  H34 non d ame      -9.880  14.845  68.083  0.00  0.00     0.048 H 
BRANCH  52  55
ATOM     55  C23 non d ame     -10.576  15.552  66.198  0.00  0.00     0.259 C 
ATOM     56  O7  non d ame     -10.974  14.641  65.547  0.00  0.00    -0.265 OA
BRANCH  55  57
ATOM     57  O8  non d ame      -9.993  16.683  65.562  0.00  0.00    -0.317 OA
BRANCH  57  58
ATOM     58  C29 non d ame     -10.271  17.926  66.214  0.00  0.00     0.052 C 
ATOM     59  H47 non d ame     -10.770  18.545  65.469  0.00  0.00     0.082 H 
ATOM     60  H48 non d ame     -10.785  17.665  67.139  0.00  0.00     0.082 H 
BRANCH  58  61
ATOM     61  C35 non d ame      -8.916  18.590  66.576  0.00  0.00    -0.034 A 
ATOM     62  C30 non d ame      -8.894  19.798  67.264  0.00  0.00    -0.075 A 
ATOM     63  C31 non d ame      -7.677  20.394  67.590  0.00  0.00    -0.082 A 
ATOM     64  H49 non d ame      -9.830  20.278  67.548  0.00  0.00     0.084 H 
ATOM     65  C32 non d ame      -6.478  19.778  67.223  0.00  0.00    -0.083 A 
ATOM     66  H50 non d ame      -7.663  21.341  68.131  0.00  0.00     0.083 H 
ATOM     67  C33 non d ame      -6.503  18.573  66.533  0.00  0.00    -0.082 A 
ATOM     68  H51 non d ame      -5.521  20.237  67.474  0.00  0.00     0.083 H 
ATOM     69  C34 non d ame      -7.718  17.973  66.208  0.00  0.00    -0.075 A 
ATOM     70  H52 non d ame      -5.566  18.096  66.246  0.00  0.00     0.083 H 
ATOM     71  H53 non d ame      -7.731  17.025  65.667  0.00  0.00     0.084 H 
ENDBRANCH  58  61
ENDBRANCH  57  58
ENDBRANCH  55  57
ENDBRANCH  52  55
ENDBRANCH  49  52
ENDBRANCH  47  49
BRANCH  47  72
ATOM     72  C24 non d ame     -11.767  13.485  70.300  0.00  0.00    -0.039 C 
ATOM     73  H35 non d ame     -12.138  12.506  70.602  0.00  0.00     0.036 H 
ATOM     74  H36 non d ame     -10.751  13.786  70.557  0.00  0.00     0.036 H 
BRANCH  72  75
ATOM     75  C25 non d ame     -12.756  14.579  70.926  0.00  0.00    -0.001 C 
ATOM     76  C26 non d ame     -11.887  15.779  71.638  0.00  0.00    -0.035 C 
ATOM     77  C27 non d ame     -12.345  15.962  72.899  0.00  0.00     0.085 C 
ATOM     78  H38 non d ame     -10.856  15.455  71.787  0.00  0.00     0.036 H 
ATOM     79  H39 non d ame     -12.094  16.731  71.150  0.00  0.00     0.036 H 
ATOM     80  N5  non d ame     -13.227  14.781  73.224  0.00  0.00    -0.049 N 
ATOM     81  H40 non d ame     -11.463  15.933  73.538  0.00  0.00     0.075 H 
ATOM     82  H41 non d ame     -12.960  16.861  72.857  0.00  0.00     0.075 H 
ATOM     83  C28 non d ame     -13.532  14.052  71.815  0.00  0.00     0.193 C 
ATOM     84  H42 non d ame     -12.672  14.158  73.794  0.00  0.00     0.280 HD
ATOM     85  H43 non d ame     -14.092  15.158  73.584  0.00  0.00     0.280 HD
ATOM     86  H44 non d ame     -14.500  14.171  71.329  0.00  0.00     0.129 H 
ATOM     87  H37 non d ame     -13.536  14.879  70.227  0.00  0.00     0.046 H 
BRANCH  83  88
ATOM     88  O6  non d ame     -13.334  12.643  71.937  0.00  0.00    -0.369 OA
ATOM     89  H45 non d ame     -12.461  12.472  72.296  0.00  0.00     0.212 HD
ENDBRANCH  83  88
ENDBRANCH  72  75
ENDBRANCH  47  72
ENDBRANCH  45  47
ENDBRANCH   1  43
BRANCH   1  90
ATOM     90  C16 non d ame      -9.149  11.402  65.437  0.00  0.00    -0.035 C 
ATOM     91  H21 non d ame      -9.608  12.387  65.347  0.00  0.00     0.037 H 
ATOM     92  H22 non d ame      -8.094  11.268  65.200  0.00  0.00     0.037 H 
BRANCH  90  93
ATOM     93  C17 non d ame      -9.941  10.458  64.477  0.00  0.00    -0.059 C 
ATOM     94  H23 non d ame     -10.511   9.763  65.092  0.00  0.00     0.038 H 
BRANCH  93  95
ATOM     95  C18 non d ame     -10.952  11.241  63.581  0.00  0.00    -0.073 C 
ATOM     96  H24 non d ame     -11.791  10.593  63.327  0.00  0.00     0.028 H 
ATOM     97  H25 non d ame     -11.319  12.113  64.123  0.00  0.00     0.028 H 
ATOM     98  H26 non d ame     -10.454  11.566  62.667  0.00  0.00     0.028 H 
ENDBRANCH  93  95
BRANCH  93  99
ATOM     99  C19 non d ame      -8.984   9.625  63.619  0.00  0.00    -0.073 C 
ATOM    100  H27 non d ame      -9.120   9.884  62.569  0.00  0.00     0.028 H 
ATOM    101  H28 non d ame      -7.956   9.834  63.915  0.00  0.00     0.028 H 
ATOM    102  H29 non d ame      -9.196   8.566  63.762  0.00  0.00     0.028 H 
ENDBRANCH  93  99
ENDBRANCH  90  93
ENDBRANCH   1  90
TORSDOF 26
ENDMDL
MODEL 20
REMARK VINA RESULT:      -6.5      3.606      9.374
REMARK  26 active torsions:
REMARK  status: ('A' for Active; 'I' for Inactive)
REMARK    1  A    between atoms: C2_2  and  C3_3 
REMARK    2  A    between atoms: C4_6  and  C5_7 
REMARK       I    between atoms: C5_7  and  N2_9 
REMARK    3  A    between atoms: N2_9  and  C6_10 
REMARK    4  A    between atoms: C6_10  and  C7_11 
REMARK    5  A    between atoms: C6_10  and  C8_13 
REMARK       I    between atoms: C7_11  and  N3_14 
REMARK    6  A    between atoms: N3_14  and  C9_15 
REMARK    7  A    between atoms: C9_15  and  C10_16 
REMARK    8  A    between atoms: C9_15  and  C11_18 
REMARK       I    between atoms: C10_16  and  N4_21 
REMARK    9  A    between atoms: C11_18  and  C12_19 
REMARK   10  A    between atoms: C11_18  and  C13_20 
REMARK   11  A    between atoms: N4_21  and  C14_22 
REMARK   12  A    between atoms: C14_22  and  C15_23 
REMARK   13  A    between atoms: C14_22  and  C16_25 
REMARK       I    between atoms: C15_23  and  N6_40 
REMARK   14  A    between atoms: C16_25  and  C17_26 
REMARK   15  A    between atoms: C17_26  and  C18_27 
REMARK   16  A    between atoms: C17_26  and  C19_28 
REMARK   17  A    between atoms: C20_29  and  C21_30 
REMARK   18  A    between atoms: C20_29  and  C24_33 
REMARK   19  A    between atoms: C20_29  and  N6_40 
REMARK   20  A    between atoms: C21_30  and  C22_31 
REMARK   21  A    between atoms: C22_31  and  C23_32 
REMARK   22  A    between atoms: C23_32  and  O8_43 
REMARK   23  A    between atoms: C24_33  and  C25_34 
REMARK   24  A    between atoms: C28_38  and  O6_39 
REMARK   25  A    between atoms: C29_42  and  O8_43 
REMARK   26  A    between atoms: C29_42  and  C35_49 
ROOT
ATOM      1  C14 non d ame      -8.760   6.960  66.657  0.00  0.00     0.089 C 
ATOM      2  H20 non d ame      -9.020   6.351  65.791  0.00  0.00     0.087 H 
ENDROOT
BRANCH   1   3
ATOM      3  N4  non d ame      -8.406   8.285  66.172  0.00  0.00    -0.346 N 
ATOM      4  C10 non d ame      -8.100   8.505  64.712  0.00  0.00     0.241 C 
ATOM      5  O4  non d ame      -8.144   7.599  63.946  0.00  0.00    -0.271 OA
ATOM      6  H19 non d ame      -8.372   9.043  66.840  0.00  0.00     0.163 HD
BRANCH   4   7
ATOM      7  C9  non d ame      -7.741   9.884  64.225  0.00  0.00     0.092 C 
ATOM      8  H11 non d ame      -7.816   9.912  63.138  0.00  0.00     0.088 H 
BRANCH   7   9
ATOM      9  N3  non d ame      -8.707  10.855  64.750  0.00  0.00    -0.346 N 
ATOM     10  C7  non d ame      -9.793  11.313  63.919  0.00  0.00     0.240 C 
ATOM     11  O3  non d ame      -9.904  10.912  62.825  0.00  0.00    -0.271 OA
ATOM     12  H10 non d ame      -8.623  11.211  65.691  0.00  0.00     0.163 HD
BRANCH  10  13
ATOM     13  C6  non d ame     -10.815  12.348  64.482  0.00  0.00     0.086 C 
ATOM     14  H6  non d ame     -11.184  12.082  65.472  0.00  0.00     0.086 H 
BRANCH  13  15
ATOM     15  N2  non d ame     -10.155  13.636  64.617  0.00  0.00    -0.343 N 
ATOM     16  C5  non d ame     -10.595  14.566  65.660  0.00  0.00     0.273 C 
ATOM     17  O2  non d ame     -11.482  14.269  66.382  0.00  0.00    -0.266 OA
ATOM     18  H5  non d ame      -9.399  13.883  63.994  0.00  0.00     0.163 HD
BRANCH  16  19
ATOM     19  C4  non d ame      -9.905  15.930  65.816  0.00  0.00     0.154 A 
ATOM     20  C1  non d ame      -8.554  16.174  66.221  0.00  0.00    -0.017 A 
ATOM     21  C2  non d ame      -8.417  17.580  66.205  0.00  0.00     0.077 A 
ATOM     22  H1  non d ame      -7.789  15.443  66.486  0.00  0.00     0.091 H 
ATOM     23  O1  non d ame      -9.561  18.076  65.832  0.00  0.00    -0.218 OA
ATOM     24  N1  non d ame     -10.445  17.132  65.600  0.00  0.00    -0.123 NA
BRANCH  21  25
ATOM     25  C3  non d ame      -7.163  18.368  66.558  0.00  0.00    -0.029 C 
ATOM     26  H2  non d ame      -7.126  18.530  67.636  0.00  0.00     0.036 H 
ATOM     27  H3  non d ame      -6.283  17.808  66.244  0.00  0.00     0.036 H 
ATOM     28  H4  non d ame      -7.182  19.331  66.046  0.00  0.00     0.036 H 
ENDBRANCH  21  25
ENDBRANCH  16  19
ENDBRANCH  13  15
BRANCH  13  29
ATOM     29  C8  non d ame     -11.986  12.466  63.540  0.00  0.00    -0.049 C 
ATOM     30  H7  non d ame     -12.048  11.570  62.922  0.00  0.00     0.030 H 
ATOM     31  H8  non d ame     -12.906  12.573  64.117  0.00  0.00     0.030 H 
ATOM     32  H9  non d ame     -11.854  13.338  62.902  0.00  0.00     0.030 H 
ENDBRANCH  13  29
ENDBRANCH  10  13
ENDBRANCH   7   9
BRANCH   7  33
ATOM     33  C11 non d ame      -6.314  10.255  64.724  0.00  0.00    -0.033 C 
ATOM     34  H12 non d ame      -5.901  10.984  64.026  0.00  0.00     0.042 H 
BRANCH  33  35
ATOM     35  C12 non d ame      -6.360  10.928  66.131  0.00  0.00    -0.071 C 
ATOM     36  H13 non d ame      -6.815  11.915  66.047  0.00  0.00     0.028 H 
ATOM     37  H14 non d ame      -6.952  10.312  66.809  0.00  0.00     0.028 H 
ATOM     38  H15 non d ame      -5.347  11.025  66.520  0.00  0.00     0.028 H 
ENDBRANCH  33  35
BRANCH  33  39
ATOM     39  C13 non d ame      -5.379   9.003  64.725  0.00  0.00    -0.071 C 
ATOM     40  H16 non d ame      -5.732   8.286  63.984  0.00  0.00     0.028 H 
ATOM     41  H17 non d ame      -4.362   9.308  64.480  0.00  0.00     0.028 H 
ATOM     42  H18 non d ame      -5.393   8.542  65.712  0.00  0.00     0.028 H 
ENDBRANCH  33  39
ENDBRANCH   7  33
ENDBRANCH   4   7
ENDBRANCH   1   3
BRANCH   1  43
ATOM     43  C15 non d ame      -9.945   7.098  67.656  0.00  0.00     0.240 C 
ATOM     44  O5  non d ame     -11.064   7.089  67.251  0.00  0.00    -0.271 OA
ATOM     45  N6  non d ame      -9.687   7.235  69.117  0.00  0.00    -0.355 N 
ATOM     46  H46 non d ame      -8.742   7.240  69.473  0.00  0.00     0.162 HD
BRANCH  45  47
ATOM     47  C20 non d ame     -10.825   7.364  70.054  0.00  0.00     0.013 C 
ATOM     48  H30 non d ame     -11.652   7.826  69.514  0.00  0.00     0.072 H 
BRANCH  47  49
ATOM     49  C21 non d ame     -10.417   8.237  71.219  0.00  0.00    -0.038 C 
ATOM     50  H31 non d ame     -10.545   7.620  72.109  0.00  0.00     0.036 H 
ATOM     51  H32 non d ame      -9.431   8.627  70.963  0.00  0.00     0.036 H 
BRANCH  49  52
ATOM     52  C22 non d ame     -11.337   9.464  71.400  0.00  0.00     0.018 C 
ATOM     53  H33 non d ame     -12.352   9.068  71.446  0.00  0.00     0.048 H 
ATOM     54  H34 non d ame     -10.928  10.017  72.246  0.00  0.00     0.048 H 
BRANCH  52  55
ATOM     55  C23 non d ame     -11.316  10.445  70.195  0.00  0.00     0.259 C 
ATOM     56  O7  non d ame     -10.406  10.441  69.431  0.00  0.00    -0.265 OA
BRANCH  55  57
ATOM     57  O8  non d ame     -12.391  11.360  70.022  0.00  0.00    -0.317 OA
BRANCH  57  58
ATOM     58  C29 non d ame     -13.068  11.701  71.235  0.00  0.00     0.052 C 
ATOM     59  H47 non d ame     -14.126  11.534  71.040  0.00  0.00     0.082 H 
ATOM     60  H48 non d ame     -12.564  11.139  72.022  0.00  0.00     0.082 H 
BRANCH  58  61
ATOM     61  C35 non d ame     -12.849  13.215  71.497  0.00  0.00    -0.034 A 
ATOM     62  C30 non d ame     -13.463  13.830  72.582  0.00  0.00    -0.075 A 
ATOM     63  C31 non d ame     -13.266  15.190  72.817  0.00  0.00    -0.082 A 
ATOM     64  H49 non d ame     -14.098  13.247  73.248  0.00  0.00     0.084 H 
ATOM     65  C32 non d ame     -12.453  15.936  71.960  0.00  0.00    -0.083 A 
ATOM     66  H50 non d ame     -13.748  15.668  73.670  0.00  0.00     0.083 H 
ATOM     67  C33 non d ame     -11.844  15.318  70.876  0.00  0.00    -0.082 A 
ATOM     68  H51 non d ame     -12.294  16.999  72.136  0.00  0.00     0.083 H 
ATOM     69  C34 non d ame     -12.036  13.958  70.639  0.00  0.00    -0.075 A 
ATOM     70  H52 non d ame     -11.212  15.903  70.207  0.00  0.00     0.083 H 
ATOM     71  H53 non d ame     -11.553  13.480  69.785  0.00  0.00     0.084 H 
ENDBRANCH  58  61
ENDBRANCH  57  58
ENDBRANCH  55  57
ENDBRANCH  52  55
ENDBRANCH  49  52
ENDBRANCH  47  49
BRANCH  47  72
ATOM     72  C24 non d ame     -11.230   5.985  70.567  0.00  0.00    -0.039 C 
ATOM     73  H35 non d ame     -11.839   6.171  71.451  0.00  0.00     0.036 H 
ATOM     74  H36 non d ame     -11.661   5.470  69.708  0.00  0.00     0.036 H 
BRANCH  72  75
ATOM     75  C25 non d ame      -9.959   5.131  71.040  0.00  0.00    -0.001 C 
ATOM     76  C26 non d ame      -9.722   3.865  70.019  0.00  0.00    -0.035 C 
ATOM     77  C27 non d ame      -9.620   2.729  70.748  0.00  0.00     0.085 C 
ATOM     78  H38 non d ame     -10.614   3.700  69.415  0.00  0.00     0.036 H 
ATOM     79  H39 non d ame      -8.747   3.949  69.539  0.00  0.00     0.036 H 
ATOM     80  N5  non d ame     -10.090   3.056  72.145  0.00  0.00    -0.049 N 
ATOM     81  H40 non d ame     -10.319   2.026  70.294  0.00  0.00     0.075 H 
ATOM     82  H41 non d ame      -8.556   2.497  70.778  0.00  0.00     0.075 H 
ATOM     83  C28 non d ame     -10.126   4.668  72.234  0.00  0.00     0.193 C 
ATOM     84  H42 non d ame     -11.036   2.710  72.217  0.00  0.00     0.280 HD
ATOM     85  H43 non d ame      -9.378   2.715  72.774  0.00  0.00     0.280 HD
ATOM     86  H44 non d ame      -9.345   5.210  72.768  0.00  0.00     0.129 H 
ATOM     87  H37 non d ame      -9.097   5.761  71.257  0.00  0.00     0.046 H 
BRANCH  83  88
ATOM     88  O6  non d ame     -11.357   5.102  72.814  0.00  0.00    -0.369 OA
ATOM     89  H45 non d ame     -12.066   4.995  72.177  0.00  0.00     0.212 HD
ENDBRANCH  83  88
ENDBRANCH  72  75
ENDBRANCH  47  72
ENDBRANCH  45  47
ENDBRANCH   1  43
BRANCH   1  90
ATOM     90  C16 non d ame      -7.560   6.355  67.370  0.00  0.00    -0.035 C 
ATOM     91  H21 non d ame      -6.734   7.038  67.174  0.00  0.00     0.037 H 
ATOM     92  H22 non d ame      -7.890   6.179  68.393  0.00  0.00     0.037 H 
BRANCH  90  93
ATOM     93  C17 non d ame      -7.128   4.967  66.799  0.00  0.00    -0.059 C 
ATOM     94  H23 non d ame      -6.489   4.489  67.542  0.00  0.00     0.038 H 
BRANCH  93  95
ATOM     95  C18 non d ame      -8.349   4.027  66.545  0.00  0.00    -0.073 C 
ATOM     96  H24 non d ame      -8.711   3.636  67.496  0.00  0.00     0.028 H 
ATOM     97  H25 non d ame      -9.146   4.590  66.058  0.00  0.00     0.028 H 
ATOM     98  H26 non d ame      -8.045   3.200  65.903  0.00  0.00     0.028 H 
ENDBRANCH  93  95
BRANCH  93  99
ATOM     99  C19 non d ame      -6.295   5.135  65.526  0.00  0.00    -0.073 C 
ATOM    100  H27 non d ame      -6.922   5.543  64.733  0.00  0.00     0.028 H 
ATOM    101  H28 non d ame      -5.466   5.816  65.721  0.00  0.00     0.028 H 
ATOM    102  H29 non d ame      -5.904   4.166  65.217  0.00  0.00     0.028 H 
ENDBRANCH  93  99
ENDBRANCH  90  93
ENDBRANCH   1  90
TORSDOF 26
ENDMDL
