MODEL 1
REMARK VINA RESULT:      -7.3      0.000      0.000
REMARK  26 active torsions:
REMARK  status: ('A' for Active; 'I' for Inactive)
REMARK    1  A    between atoms: C2_2  and  C3_3 
REMARK    2  A    between atoms: C4_6  and  C5_7 
REMARK       I    between atoms: C5_7  and  N2_9 
REMARK    3  A    between atoms: N2_9  and  C6_10 
REMARK    4  A    between atoms: C6_10  and  C7_11 
REMARK    5  A    between atoms: C6_10  and  C8_13 
REMARK       I    between atoms: C7_11  and  N3_14 
REMARK    6  A    between atoms: N3_14  and  C9_15 
REMARK    7  A    between atoms: C9_15  and  C10_16 
REMARK    8  A    between atoms: C9_15  and  C11_18 
REMARK       I    between atoms: C10_16  and  N4_21 
REMARK    9  A    between atoms: C11_18  and  C12_19 
REMARK   10  A    between atoms: C11_18  and  C13_20 
REMARK   11  A    between atoms: N4_21  and  C14_22 
REMARK   12  A    between atoms: C14_22  and  C15_23 
REMARK   13  A    between atoms: C14_22  and  C16_25 
REMARK       I    between atoms: C15_23  and  N6_40 
REMARK   14  A    between atoms: C16_25  and  C17_26 
REMARK   15  A    between atoms: C17_26  and  C18_27 
REMARK   16  A    between atoms: C17_26  and  C19_28 
REMARK   17  A    between atoms: C20_29  and  C21_30 
REMARK   18  A    between atoms: C20_29  and  C24_33 
REMARK   19  A    between atoms: C20_29  and  N6_40 
REMARK   20  A    between atoms: C21_30  and  C22_31 
REMARK   21  A    between atoms: C22_31  and  C23_32 
REMARK   22  A    between atoms: C23_32  and  O8_43 
REMARK   23  A    between atoms: C24_33  and  C25_34 
REMARK   24  A    between atoms: C28_38  and  O6_39 
REMARK   25  A    between atoms: C29_42  and  O8_43 
REMARK   26  A    between atoms: C29_42  and  C35_49 
ROOT
ATOM      1  C14 non d ame     -12.321  14.348  70.470  0.00  0.00     0.089 C 
ATOM      2  H20 non d ame     -13.396  14.336  70.650  0.00  0.00     0.087 H 
ENDROOT
BRANCH   1   3
ATOM      3  N4  non d ame     -11.907  12.979  70.199  0.00  0.00    -0.346 N 
ATOM      4  C10 non d ame     -12.519  11.832  70.963  0.00  0.00     0.241 C 
ATOM      5  O4  non d ame     -13.343  12.037  71.794  0.00  0.00    -0.271 OA
ATOM      6  H19 non d ame     -11.202  12.827  69.490  0.00  0.00     0.163 HD
BRANCH   4   7
ATOM      7  C9  non d ame     -12.083  10.422  70.666  0.00  0.00     0.092 C 
ATOM      8  H11 non d ame     -12.576  10.078  69.757  0.00  0.00     0.088 H 
BRANCH   7   9
ATOM      9  N3  non d ame     -10.640  10.400  70.411  0.00  0.00    -0.346 N 
ATOM     10  C7  non d ame     -10.144  10.061  69.100  0.00  0.00     0.240 C 
ATOM     11  O3  non d ame     -10.894   9.800  68.239  0.00  0.00    -0.271 OA
ATOM     12  H10 non d ame      -9.982  10.620  71.144  0.00  0.00     0.163 HD
BRANCH  10  13
ATOM     13  C6  non d ame      -8.607  10.036  68.835  0.00  0.00     0.086 C 
ATOM     14  H6  non d ame      -8.361   9.835  67.793  0.00  0.00     0.086 H 
BRANCH  13  15
ATOM     15  N2  non d ame      -8.054  11.343  69.149  0.00  0.00    -0.343 N 
ATOM     16  C5  non d ame      -7.935  12.348  68.089  0.00  0.00     0.273 C 
ATOM     17  O2  non d ame      -8.284  12.094  66.989  0.00  0.00    -0.266 OA
ATOM     18  H5  non d ame      -7.756  11.551  70.090  0.00  0.00     0.163 HD
BRANCH  16  19
ATOM     19  C4  non d ame      -7.354  13.735  68.406  0.00  0.00     0.154 A 
ATOM     20  C1  non d ame      -6.247  14.376  67.765  0.00  0.00    -0.017 A 
ATOM     21  C2  non d ame      -6.119  15.621  68.419  0.00  0.00     0.077 A 
ATOM     22  H1  non d ame      -5.630  13.995  66.950  0.00  0.00     0.091 H 
ATOM     23  O1  non d ame      -7.050  15.680  69.327  0.00  0.00    -0.218 OA
ATOM     24  N1  non d ame      -7.783  14.590  69.339  0.00  0.00    -0.123 NA
BRANCH  21  25
ATOM     25  C3  non d ame      -5.085  16.697  68.115  0.00  0.00    -0.029 C 
ATOM     26  H2  non d ame      -5.437  17.658  68.492  0.00  0.00     0.036 H 
ATOM     27  H3  non d ame      -4.142  16.441  68.599  0.00  0.00     0.036 H 
ATOM     28  H4  non d ame      -4.933  16.763  67.038  0.00  0.00     0.036 H 
ENDBRANCH  21  25
ENDBRANCH  16  19
ENDBRANCH  13  15
BRANCH  13  29
ATOM     29  C8  non d ame      -7.962   8.983  69.700  0.00  0.00    -0.049 C 
ATOM     30  H7  non d ame      -7.521   8.212  69.067  0.00  0.00     0.030 H 
ATOM     31  H8  non d ame      -7.182   9.441  70.310  0.00  0.00     0.030 H 
ATOM     32  H9  non d ame      -8.713   8.533  70.347  0.00  0.00     0.030 H 
ENDBRANCH  13  29
ENDBRANCH  10  13
ENDBRANCH   7   9
BRANCH   7  33
ATOM     33  C11 non d ame     -12.405   9.511  71.887  0.00  0.00    -0.033 C 
ATOM     34  H12 non d ame     -12.529  10.158  72.756  0.00  0.00     0.042 H 
BRANCH  33  35
ATOM     35  C12 non d ame     -13.746   8.740  71.682  0.00  0.00    -0.071 C 
ATOM     36  H13 non d ame     -13.626   7.708  72.013  0.00  0.00     0.028 H 
ATOM     37  H14 non d ame     -14.533   9.218  72.265  0.00  0.00     0.028 H 
ATOM     38  H15 non d ame     -14.016   8.755  70.627  0.00  0.00     0.028 H 
ENDBRANCH  33  35
BRANCH  33  39
ATOM     39  C13 non d ame     -11.226   8.529  72.179  0.00  0.00    -0.071 C 
ATOM     40  H16 non d ame     -11.566   7.503  72.046  0.00  0.00     0.028 H 
ATOM     41  H17 non d ame     -10.404   8.733  71.491  0.00  0.00     0.028 H 
ATOM     42  H18 non d ame     -10.884   8.669  73.204  0.00  0.00     0.028 H 
ENDBRANCH  33  39
ENDBRANCH   7  33
ENDBRANCH   4   7
ENDBRANCH   1   3
BRANCH   1  43
ATOM     43  C15 non d ame     -11.939  15.231  69.248  0.00  0.00     0.240 C 
ATOM     44  O5  non d ame     -12.328  16.354  69.186  0.00  0.00    -0.271 OA
ATOM     45  N6  non d ame     -11.081  14.683  68.160  0.00  0.00    -0.355 N 
ATOM     46  H46 non d ame     -10.741  13.733  68.204  0.00  0.00     0.162 HD
BRANCH  45  47
ATOM     47  C20 non d ame     -10.727  15.537  67.005  0.00  0.00     0.013 C 
ATOM     48  H30 non d ame     -11.646  15.973  66.616  0.00  0.00     0.072 H 
BRANCH  47  49
ATOM     49  C21 non d ame     -10.066  14.690  65.941  0.00  0.00    -0.038 C 
ATOM     50  H31 non d ame      -9.469  15.379  65.344  0.00  0.00     0.036 H 
ATOM     51  H32 non d ame      -9.583  13.871  66.475  0.00  0.00     0.036 H 
BRANCH  49  52
ATOM     52  C22 non d ame     -11.082  14.041  64.976  0.00  0.00     0.018 C 
ATOM     53  H33 non d ame     -12.010  14.598  65.105  0.00  0.00     0.048 H 
ATOM     54  H34 non d ame     -10.591  14.018  64.002  0.00  0.00     0.048 H 
BRANCH  52  55
ATOM     55  C23 non d ame     -11.418  12.564  65.322  0.00  0.00     0.259 C 
ATOM     56  O7  non d ame     -12.016  12.299  66.314  0.00  0.00    -0.265 OA
BRANCH  55  57
ATOM     57  O8  non d ame     -10.991  11.527  64.447  0.00  0.00    -0.317 OA
BRANCH  57  58
ATOM     58  C29 non d ame     -10.122  11.970  63.400  0.00  0.00     0.052 C 
ATOM     59  H47 non d ame     -10.767  12.171  62.546  0.00  0.00     0.082 H 
ATOM     60  H48 non d ame      -9.524  12.772  63.832  0.00  0.00     0.082 H 
BRANCH  58  61
ATOM     61  C35 non d ame      -9.175  10.795  63.035  0.00  0.00    -0.034 A 
ATOM     62  C30 non d ame      -8.359  10.881  61.912  0.00  0.00    -0.075 A 
ATOM     63  C31 non d ame      -7.509   9.827  61.584  0.00  0.00    -0.082 A 
ATOM     64  H49 non d ame      -8.385  11.775  61.290  0.00  0.00     0.084 H 
ATOM     65  C32 non d ame      -7.479   8.680  62.383  0.00  0.00    -0.083 A 
ATOM     66  H50 non d ame      -6.870   9.898  60.705  0.00  0.00     0.083 H 
ATOM     67  C33 non d ame      -8.298   8.597  63.501  0.00  0.00    -0.082 A 
ATOM     68  H51 non d ame      -6.818   7.851  62.134  0.00  0.00     0.083 H 
ATOM     69  C34 non d ame      -9.147   9.650  63.834  0.00  0.00    -0.075 A 
ATOM     70  H52 non d ame      -8.274   7.700  64.121  0.00  0.00     0.083 H 
ATOM     71  H53 non d ame      -9.787   9.578  64.715  0.00  0.00     0.084 H 
ENDBRANCH  58  61
ENDBRANCH  57  58
ENDBRANCH  55  57
ENDBRANCH  52  55
ENDBRANCH  49  52
ENDBRANCH  47  49
BRANCH  47  72
ATOM     72  C24 non d ame      -9.765  16.635  67.452  0.00  0.00    -0.039 C 
ATOM     73  H35 non d ame     -10.271  17.150  68.269  0.00  0.00     0.036 H 
ATOM     74  H36 non d ame      -8.814  16.134  67.631  0.00  0.00     0.036 H 
BRANCH  72  75
ATOM     75  C25 non d ame      -9.520  17.715  66.294  0.00  0.00    -0.001 C 
ATOM     76  C26 non d ame      -7.918  18.070  66.188  0.00  0.00    -0.035 C 
ATOM     77  C27 non d ame      -7.765  19.415  66.227  0.00  0.00     0.085 C 
ATOM     78  H38 non d ame      -7.400  17.729  67.085  0.00  0.00     0.036 H 
ATOM     79  H39 non d ame      -7.538  17.798  65.203  0.00  0.00     0.036 H 
ATOM     80  N5  non d ame      -9.083  19.996  66.677  0.00  0.00    -0.049 N 
ATOM     81  H40 non d ame      -7.013  19.601  66.995  0.00  0.00     0.075 H 
ATOM     82  H41 non d ame      -7.577  19.716  65.197  0.00  0.00     0.075 H 
ATOM     83  C28 non d ame     -10.166  18.808  66.529  0.00  0.00     0.193 C 
ATOM     84  H42 non d ame      -8.979  20.217  67.657  0.00  0.00     0.280 HD
ATOM     85  H43 non d ame      -9.314  20.725  66.018  0.00  0.00     0.280 HD
ATOM     86  H44 non d ame     -10.873  18.803  65.699  0.00  0.00     0.129 H 
ATOM     87  H37 non d ame     -10.031  17.451  65.369  0.00  0.00     0.046 H 
BRANCH  83  88
ATOM     88  O6  non d ame     -10.964  18.719  67.711  0.00  0.00    -0.369 OA
ATOM     89  H45 non d ame     -11.881  18.896  67.492  0.00  0.00     0.212 HD
ENDBRANCH  83  88
ENDBRANCH  72  75
ENDBRANCH  47  72
ENDBRANCH  45  47
ENDBRANCH   1  43
BRANCH   1  90
ATOM     90  C16 non d ame     -11.597  14.850  71.710  0.00  0.00    -0.035 C 
ATOM     91  H21 non d ame     -11.295  13.952  72.251  0.00  0.00     0.037 H 
ATOM     92  H22 non d ame     -10.841  15.543  71.342  0.00  0.00     0.037 H 
BRANCH  90  93
ATOM     93  C17 non d ame     -12.509  15.664  72.681  0.00  0.00    -0.059 C 
ATOM     94  H23 non d ame     -12.228  16.714  72.596  0.00  0.00     0.038 H 
BRANCH  93  95
ATOM     95  C18 non d ame     -14.021  15.543  72.312  0.00  0.00    -0.073 C 
ATOM     96  H24 non d ame     -14.302  14.490  72.271  0.00  0.00     0.028 H 
ATOM     97  H25 non d ame     -14.621  16.050  73.067  0.00  0.00     0.028 H 
ATOM     98  H26 non d ame     -14.196  16.004  71.340  0.00  0.00     0.028 H 
ENDBRANCH  93  95
BRANCH  93  99
ATOM     99  C19 non d ame     -12.268  15.247  74.135  0.00  0.00    -0.073 C 
ATOM    100  H27 non d ame     -13.027  14.525  74.436  0.00  0.00     0.028 H 
ATOM    101  H28 non d ame     -11.280  14.794  74.224  0.00  0.00     0.028 H 
ATOM    102  H29 non d ame     -12.325  16.124  74.778  0.00  0.00     0.028 H 
ENDBRANCH  93  99
ENDBRANCH  90  93
ENDBRANCH   1  90
TORSDOF 26
ENDMDL
MODEL 2
REMARK VINA RESULT:      -6.9      3.371      6.663
REMARK  26 active torsions:
REMARK  status: ('A' for Active; 'I' for Inactive)
REMARK    1  A    between atoms: C2_2  and  C3_3 
REMARK    2  A    between atoms: C4_6  and  C5_7 
REMARK       I    between atoms: C5_7  and  N2_9 
REMARK    3  A    between atoms: N2_9  and  C6_10 
REMARK    4  A    between atoms: C6_10  and  C7_11 
REMARK    5  A    between atoms: C6_10  and  C8_13 
REMARK       I    between atoms: C7_11  and  N3_14 
REMARK    6  A    between atoms: N3_14  and  C9_15 
REMARK    7  A    between atoms: C9_15  and  C10_16 
REMARK    8  A    between atoms: C9_15  and  C11_18 
REMARK       I    between atoms: C10_16  and  N4_21 
REMARK    9  A    between atoms: C11_18  and  C12_19 
REMARK   10  A    between atoms: C11_18  and  C13_20 
REMARK   11  A    between atoms: N4_21  and  C14_22 
REMARK   12  A    between atoms: C14_22  and  C15_23 
REMARK   13  A    between atoms: C14_22  and  C16_25 
REMARK       I    between atoms: C15_23  and  N6_40 
REMARK   14  A    between atoms: C16_25  and  C17_26 
REMARK   15  A    between atoms: C17_26  and  C18_27 
REMARK   16  A    between atoms: C17_26  and  C19_28 
REMARK   17  A    between atoms: C20_29  and  C21_30 
REMARK   18  A    between atoms: C20_29  and  C24_33 
REMARK   19  A    between atoms: C20_29  and  N6_40 
REMARK   20  A    between atoms: C21_30  and  C22_31 
REMARK   21  A    between atoms: C22_31  and  C23_32 
REMARK   22  A    between atoms: C23_32  and  O8_43 
REMARK   23  A    between atoms: C24_33  and  C25_34 
REMARK   24  A    between atoms: C28_38  and  O6_39 
REMARK   25  A    between atoms: C29_42  and  O8_43 
REMARK   26  A    between atoms: C29_42  and  C35_49 
ROOT
ATOM      1  C14 non d ame     -10.022  10.274  68.699  0.00  0.00     0.089 C 
ATOM      2  H20 non d ame      -9.350  10.350  69.554  0.00  0.00     0.087 H 
ENDROOT
BRANCH   1   3
ATOM      3  N4  non d ame     -10.614   8.945  68.724  0.00  0.00    -0.346 N 
ATOM      4  C10 non d ame      -9.963   7.835  69.509  0.00  0.00     0.241 C 
ATOM      5  O4  non d ame      -8.960   8.035  70.112  0.00  0.00    -0.271 OA
ATOM      6  H19 non d ame     -11.467   8.795  68.201  0.00  0.00     0.163 HD
BRANCH   4   7
ATOM      7  C9  non d ame     -10.593   6.467  69.528  0.00  0.00     0.092 C 
ATOM      8  H11 non d ame     -11.651   6.556  69.283  0.00  0.00     0.088 H 
BRANCH   7   9
ATOM      9  N3  non d ame      -9.978   5.632  68.492  0.00  0.00    -0.346 N 
ATOM     10  C7  non d ame     -10.408   5.749  67.121  0.00  0.00     0.240 C 
ATOM     11  O3  non d ame     -11.250   6.511  66.833  0.00  0.00    -0.271 OA
ATOM     12  H10 non d ame      -9.253   4.969  68.726  0.00  0.00     0.163 HD
BRANCH  10  13
ATOM     13  C6  non d ame      -9.753   4.855  66.024  0.00  0.00     0.086 C 
ATOM     14  H6  non d ame     -10.386   4.732  65.146  0.00  0.00     0.086 H 
BRANCH  13  15
ATOM     15  N2  non d ame      -8.528   5.490  65.568  0.00  0.00    -0.343 N 
ATOM     16  C5  non d ame      -8.181   5.449  64.145  0.00  0.00     0.273 C 
ATOM     17  O2  non d ame      -8.892   4.899  63.378  0.00  0.00    -0.266 OA
ATOM     18  H5  non d ame      -7.925   5.956  66.231  0.00  0.00     0.163 HD
BRANCH  16  19
ATOM     19  C4  non d ame      -6.890   6.118  63.648  0.00  0.00     0.154 A 
ATOM     20  C1  non d ame      -6.618   7.521  63.573  0.00  0.00    -0.017 A 
ATOM     21  C2  non d ame      -5.307   7.610  63.054  0.00  0.00     0.077 A 
ATOM     22  H1  non d ame      -7.272   8.349  63.851  0.00  0.00     0.091 H 
ATOM     23  O1  non d ame      -4.884   6.395  62.860  0.00  0.00    -0.218 OA
ATOM     24  N1  non d ame      -5.791   5.507  63.198  0.00  0.00    -0.123 NA
BRANCH  21  25
ATOM     25  C3  non d ame      -4.532   8.891  62.776  0.00  0.00    -0.029 C 
ATOM     26  H2  non d ame      -5.043   9.735  63.243  0.00  0.00     0.036 H 
ATOM     27  H3  non d ame      -3.527   8.804  63.187  0.00  0.00     0.036 H 
ATOM     28  H4  non d ame      -4.471   9.054  61.700  0.00  0.00     0.036 H 
ENDBRANCH  21  25
ENDBRANCH  16  19
ENDBRANCH  13  15
BRANCH  13  29
ATOM     29  C8  non d ame      -9.445   3.495  66.598  0.00  0.00    -0.049 C 
ATOM     30  H7  non d ame     -10.360   3.051  66.991  0.00  0.00     0.030 H 
ATOM     31  H8  non d ame      -9.038   2.854  65.814  0.00  0.00     0.030 H 
ATOM     32  H9  non d ame      -8.716   3.595  67.400  0.00  0.00     0.030 H 
ENDBRANCH  13  29
ENDBRANCH  10  13
ENDBRANCH   7   9
BRANCH   7  33
ATOM     33  C11 non d ame     -10.368   5.811  70.922  0.00  0.00    -0.033 C 
ATOM     34  H12 non d ame      -9.534   6.328  71.397  0.00  0.00     0.042 H 
BRANCH  33  35
ATOM     35  C12 non d ame     -11.615   5.989  71.842  0.00  0.00    -0.071 C 
ATOM     36  H13 non d ame     -12.453   6.358  71.250  0.00  0.00     0.028 H 
ATOM     37  H14 non d ame     -11.880   5.029  72.286  0.00  0.00     0.028 H 
ATOM     38  H15 non d ame     -11.385   6.703  72.632  0.00  0.00     0.028 H 
ENDBRANCH  33  35
BRANCH  33  39
ATOM     39  C13 non d ame      -9.982   4.304  70.775  0.00  0.00    -0.071 C 
ATOM     40  H16 non d ame      -9.159   4.072  71.450  0.00  0.00     0.028 H 
ATOM     41  H17 non d ame     -10.843   3.683  71.023  0.00  0.00     0.028 H 
ATOM     42  H18 non d ame      -9.676   4.108  69.747  0.00  0.00     0.028 H 
ENDBRANCH  33  39
ENDBRANCH   7  33
ENDBRANCH   4   7
ENDBRANCH   1   3
BRANCH   1  43
ATOM     43  C15 non d ame     -11.165  11.327  68.754  0.00  0.00     0.240 C 
ATOM     44  O5  non d ame     -12.081  11.246  68.000  0.00  0.00    -0.271 OA
ATOM     45  N6  non d ame     -11.124  12.433  69.753  0.00  0.00    -0.355 N 
ATOM     46  H46 non d ame     -10.354  12.510  70.401  0.00  0.00     0.162 HD
BRANCH  45  47
ATOM     47  C20 non d ame     -12.220  13.426  69.793  0.00  0.00     0.013 C 
ATOM     48  H30 non d ame     -13.031  13.055  69.167  0.00  0.00     0.072 H 
BRANCH  47  49
ATOM     49  C21 non d ame     -11.717  14.747  69.257  0.00  0.00    -0.038 C 
ATOM     50  H31 non d ame     -12.445  15.492  69.580  0.00  0.00     0.036 H 
ATOM     51  H32 non d ame     -10.679  14.821  69.584  0.00  0.00     0.036 H 
BRANCH  49  52
ATOM     52  C22 non d ame     -11.693  14.798  67.714  0.00  0.00     0.018 C 
ATOM     53  H33 non d ame     -11.237  13.861  67.394  0.00  0.00     0.048 H 
ATOM     54  H34 non d ame     -12.712  15.040  67.411  0.00  0.00     0.048 H 
BRANCH  52  55
ATOM     55  C23 non d ame     -10.794  15.928  67.140  0.00  0.00     0.259 C 
ATOM     56  O7  non d ame     -10.643  16.942  67.741  0.00  0.00    -0.265 OA
BRANCH  55  57
ATOM     57  O8  non d ame     -10.163  15.745  65.879  0.00  0.00    -0.317 OA
BRANCH  57  58
ATOM     58  C29 non d ame     -11.074  15.629  64.782  0.00  0.00     0.052 C 
ATOM     59  H47 non d ame     -12.045  15.933  65.171  0.00  0.00     0.082 H 
ATOM     60  H48 non d ame     -10.618  16.183  63.961  0.00  0.00     0.082 H 
BRANCH  58  61
ATOM     61  C35 non d ame     -11.153  14.132  64.380  0.00  0.00    -0.034 A 
ATOM     62  C30 non d ame     -10.032  13.318  64.505  0.00  0.00    -0.075 A 
ATOM     63  C31 non d ame     -10.102  11.973  64.144  0.00  0.00    -0.082 A 
ATOM     64  H49 non d ame      -9.099  13.733  64.885  0.00  0.00     0.084 H 
ATOM     65  C32 non d ame     -11.299  11.444  63.655  0.00  0.00    -0.083 A 
ATOM     66  H50 non d ame      -9.223  11.338  64.244  0.00  0.00     0.083 H 
ATOM     67  C33 non d ame     -12.415  12.261  63.529  0.00  0.00    -0.082 A 
ATOM     68  H51 non d ame     -11.363  10.393  63.371  0.00  0.00     0.083 H 
ATOM     69  C34 non d ame     -12.349  13.605  63.891  0.00  0.00    -0.075 A 
ATOM     70  H52 non d ame     -13.347  11.845  63.145  0.00  0.00     0.083 H 
ATOM     71  H53 non d ame     -13.231  14.240  63.791  0.00  0.00     0.084 H 
ENDBRANCH  58  61
ENDBRANCH  57  58
ENDBRANCH  55  57
ENDBRANCH  52  55
ENDBRANCH  49  52
ENDBRANCH  47  49
BRANCH  47  72
ATOM     72  C24 non d ame     -12.699  13.607  71.231  0.00  0.00    -0.039 C 
ATOM     73  H35 non d ame     -13.705  13.187  71.257  0.00  0.00     0.036 H 
ATOM     74  H36 non d ame     -11.914  13.180  71.855  0.00  0.00     0.036 H 
BRANCH  72  75
ATOM     75  C25 non d ame     -12.823  15.156  71.623  0.00  0.00    -0.001 C 
ATOM     76  C26 non d ame     -11.789  15.508  72.851  0.00  0.00    -0.035 C 
ATOM     77  C27 non d ame     -12.476  16.137  73.835  0.00  0.00     0.085 C 
ATOM     78  H38 non d ame     -11.447  14.589  73.327  0.00  0.00     0.036 H 
ATOM     79  H39 non d ame     -11.064  16.256  72.528  0.00  0.00     0.036 H 
ATOM     80  N5  non d ame     -13.944  15.956  73.533  0.00  0.00    -0.049 N 
ATOM     81  H40 non d ame     -12.232  15.599  74.751  0.00  0.00     0.075 H 
ATOM     82  H41 non d ame     -12.222  17.192  73.738  0.00  0.00     0.075 H 
ATOM     83  C28 non d ame     -14.023  15.447  72.003  0.00  0.00     0.193 C 
ATOM     84  H42 non d ame     -14.270  15.214  74.136  0.00  0.00     0.280 HD
ATOM     85  H43 non d ame     -14.363  16.872  73.589  0.00  0.00     0.280 HD
ATOM     86  H44 non d ame     -14.323  16.130  71.207  0.00  0.00     0.129 H 
ATOM     87  H37 non d ame     -12.796  15.806  70.749  0.00  0.00     0.046 H 
BRANCH  83  88
ATOM     88  O6  non d ame     -14.907  14.330  71.901  0.00  0.00    -0.369 OA
ATOM     89  H45 non d ame     -14.461  13.609  71.452  0.00  0.00     0.212 HD
ENDBRANCH  83  88
ENDBRANCH  72  75
ENDBRANCH  47  72
ENDBRANCH  45  47
ENDBRANCH   1  43
BRANCH   1  90
ATOM     90  C16 non d ame      -9.233  10.443  67.409  0.00  0.00    -0.035 C 
ATOM     91  H21 non d ame      -9.930  10.893  66.702  0.00  0.00     0.037 H 
ATOM     92  H22 non d ame      -8.326  10.975  67.694  0.00  0.00     0.037 H 
BRANCH  90  93
ATOM     93  C17 non d ame      -8.773   9.092  66.776  0.00  0.00    -0.059 C 
ATOM     94  H23 non d ame      -9.200   8.285  67.371  0.00  0.00     0.038 H 
BRANCH  93  95
ATOM     95  C18 non d ame      -9.282   8.924  65.309  0.00  0.00    -0.073 C 
ATOM     96  H24 non d ame      -8.886   7.998  64.891  0.00  0.00     0.028 H 
ATOM     97  H25 non d ame     -10.371   8.887  65.304  0.00  0.00     0.028 H 
ATOM     98  H26 non d ame      -8.945   9.768  64.708  0.00  0.00     0.028 H 
ENDBRANCH  93  95
BRANCH  93  99
ATOM     99  C19 non d ame      -7.250   8.947  66.844  0.00  0.00    -0.073 C 
ATOM    100  H27 non d ame      -6.812   9.883  67.192  0.00  0.00     0.028 H 
ATOM    101  H28 non d ame      -6.992   8.145  67.535  0.00  0.00     0.028 H 
ATOM    102  H29 non d ame      -6.863   8.712  65.853  0.00  0.00     0.028 H 
ENDBRANCH  93  99
ENDBRANCH  90  93
ENDBRANCH   1  90
TORSDOF 26
ENDMDL
MODEL 3
REMARK VINA RESULT:      -6.9      1.655      2.516
REMARK  26 active torsions:
REMARK  status: ('A' for Active; 'I' for Inactive)
REMARK    1  A    between atoms: C2_2  and  C3_3 
REMARK    2  A    between atoms: C4_6  and  C5_7 
REMARK       I    between atoms: C5_7  and  N2_9 
REMARK    3  A    between atoms: N2_9  and  C6_10 
REMARK    4  A    between atoms: C6_10  and  C7_11 
REMARK    5  A    between atoms: C6_10  and  C8_13 
REMARK       I    between atoms: C7_11  and  N3_14 
REMARK    6  A    between atoms: N3_14  and  C9_15 
REMARK    7  A    between atoms: C9_15  and  C10_16 
REMARK    8  A    between atoms: C9_15  and  C11_18 
REMARK       I    between atoms: C10_16  and  N4_21 
REMARK    9  A    between atoms: C11_18  and  C12_19 
REMARK   10  A    between atoms: C11_18  and  C13_20 
REMARK   11  A    between atoms: N4_21  and  C14_22 
REMARK   12  A    between atoms: C14_22  and  C15_23 
REMARK   13  A    between atoms: C14_22  and  C16_25 
REMARK       I    between atoms: C15_23  and  N6_40 
REMARK   14  A    between atoms: C16_25  and  C17_26 
REMARK   15  A    between atoms: C17_26  and  C18_27 
REMARK   16  A    between atoms: C17_26  and  C19_28 
REMARK   17  A    between atoms: C20_29  and  C21_30 
REMARK   18  A    between atoms: C20_29  and  C24_33 
REMARK   19  A    between atoms: C20_29  and  N6_40 
REMARK   20  A    between atoms: C21_30  and  C22_31 
REMARK   21  A    between atoms: C22_31  and  C23_32 
REMARK   22  A    between atoms: C23_32  and  O8_43 
REMARK   23  A    between atoms: C24_33  and  C25_34 
REMARK   24  A    between atoms: C28_38  and  O6_39 
REMARK   25  A    between atoms: C29_42  and  O8_43 
REMARK   26  A    between atoms: C29_42  and  C35_49 
ROOT
ATOM      1  C14 non d ame     -11.919  14.184  69.769  0.00  0.00     0.089 C 
ATOM      2  H20 non d ame     -12.895  13.743  69.567  0.00  0.00     0.087 H 
ENDROOT
BRANCH   1   3
ATOM      3  N4  non d ame     -10.917  13.149  69.558  0.00  0.00    -0.346 N 
ATOM      4  C10 non d ame     -11.120  12.098  68.495  0.00  0.00     0.241 C 
ATOM      5  O4  non d ame     -12.099  12.105  67.824  0.00  0.00    -0.271 OA
ATOM      6  H19 non d ame     -10.092  13.160  70.142  0.00  0.00     0.163 HD
BRANCH   4   7
ATOM      7  C9  non d ame     -10.071  11.039  68.287  0.00  0.00     0.092 C 
ATOM      8  H11 non d ame      -9.829  10.977  67.226  0.00  0.00     0.088 H 
BRANCH   7   9
ATOM      9  N3  non d ame      -8.842  11.421  68.989  0.00  0.00    -0.346 N 
ATOM     10  C7  non d ame      -7.764  12.050  68.266  0.00  0.00     0.240 C 
ATOM     11  O3  non d ame      -7.868  12.253  67.118  0.00  0.00    -0.271 OA
ATOM     12  H10 non d ame      -8.738  11.250  69.978  0.00  0.00     0.163 HD
BRANCH  10  13
ATOM     13  C6  non d ame      -6.458  12.451  69.019  0.00  0.00     0.086 C 
ATOM     14  H6  non d ame      -5.577  12.426  68.378  0.00  0.00     0.086 H 
BRANCH  13  15
ATOM     15  N2  non d ame      -6.589  13.819  69.492  0.00  0.00    -0.343 N 
ATOM     16  C5  non d ame      -5.687  14.851  68.975  0.00  0.00     0.273 C 
ATOM     17  O2  non d ame      -4.858  14.569  68.180  0.00  0.00    -0.266 OA
ATOM     18  H5  non d ame      -7.298  14.051  70.172  0.00  0.00     0.163 HD
BRANCH  16  19
ATOM     19  C4  non d ame      -5.815  16.302  69.464  0.00  0.00     0.154 A 
ATOM     20  C1  non d ame      -5.061  16.933  70.504  0.00  0.00    -0.017 A 
ATOM     21  C2  non d ame      -5.557  18.254  70.563  0.00  0.00     0.077 A 
ATOM     22  H1  non d ame      -4.274  16.499  71.122  0.00  0.00     0.091 H 
ATOM     23  O1  non d ame      -6.486  18.360  69.657  0.00  0.00    -0.218 OA
ATOM     24  N1  non d ame      -6.655  17.233  69.004  0.00  0.00    -0.123 NA
BRANCH  21  25
ATOM     25  C3  non d ame      -5.090  19.352  71.508  0.00  0.00    -0.029 C 
ATOM     26  H2  non d ame      -5.708  19.347  72.407  0.00  0.00     0.036 H 
ATOM     27  H3  non d ame      -4.050  19.176  71.783  0.00  0.00     0.036 H 
ATOM     28  H4  non d ame      -5.175  20.320  71.014  0.00  0.00     0.036 H 
ENDBRANCH  21  25
ENDBRANCH  16  19
ENDBRANCH  13  15
BRANCH  13  29
ATOM     29  C8  non d ame      -6.240  11.521  70.184  0.00  0.00    -0.049 C 
ATOM     30  H7  non d ame      -6.598  10.524  69.927  0.00  0.00     0.030 H 
ATOM     31  H8  non d ame      -5.175  11.475  70.417  0.00  0.00     0.030 H 
ATOM     32  H9  non d ame      -6.785  11.890  71.052  0.00  0.00     0.030 H 
ENDBRANCH  13  29
ENDBRANCH  10  13
ENDBRANCH   7   9
BRANCH   7  33
ATOM     33  C11 non d ame     -10.586   9.681  68.849  0.00  0.00    -0.033 C 
ATOM     34  H12 non d ame     -11.652   9.791  69.047  0.00  0.00     0.042 H 
BRANCH  33  35
ATOM     35  C12 non d ame     -10.418   8.533  67.805  0.00  0.00    -0.071 C 
ATOM     36  H13 non d ame      -9.410   8.125  67.873  0.00  0.00     0.028 H 
ATOM     37  H14 non d ame     -11.143   7.746  68.010  0.00  0.00     0.028 H 
ATOM     38  H15 non d ame     -10.585   8.928  66.803  0.00  0.00     0.028 H 
ENDBRANCH  33  35
BRANCH  33  39
ATOM     39  C13 non d ame      -9.877   9.329  70.196  0.00  0.00    -0.071 C 
ATOM     40  H16 non d ame      -9.712   8.254  70.250  0.00  0.00     0.028 H 
ATOM     41  H17 non d ame      -8.919   9.847  70.249  0.00  0.00     0.028 H 
ATOM     42  H18 non d ame     -10.506   9.642  71.029  0.00  0.00     0.028 H 
ENDBRANCH  33  39
ENDBRANCH   7  33
ENDBRANCH   4   7
ENDBRANCH   1   3
BRANCH   1  43
ATOM     43  C15 non d ame     -11.605  15.377  68.822  0.00  0.00     0.240 C 
ATOM     44  O5  non d ame     -11.853  16.488  69.169  0.00  0.00    -0.271 OA
ATOM     45  N6  non d ame     -10.987  15.138  67.487  0.00  0.00    -0.355 N 
ATOM     46  H46 non d ame     -10.768  14.200  67.184  0.00  0.00     0.162 HD
BRANCH  45  47
ATOM     47  C20 non d ame     -10.694  16.284  66.600  0.00  0.00     0.013 C 
ATOM     48  H30 non d ame     -11.483  17.024  66.736  0.00  0.00     0.072 H 
BRANCH  47  49
ATOM     49  C21 non d ame     -10.672  15.811  65.163  0.00  0.00    -0.038 C 
ATOM     50  H31 non d ame     -11.711  15.822  64.833  0.00  0.00     0.036 H 
ATOM     51  H32 non d ame      -9.932  16.435  64.660  0.00  0.00     0.036 H 
BRANCH  49  52
ATOM     52  C22 non d ame     -10.182  14.354  65.019  0.00  0.00     0.018 C 
ATOM     53  H33 non d ame      -9.417  14.374  64.242  0.00  0.00     0.048 H 
ATOM     54  H34 non d ame      -9.926  14.027  66.028  0.00  0.00     0.048 H 
BRANCH  52  55
ATOM     55  C23 non d ame     -11.278  13.373  64.516  0.00  0.00     0.259 C 
ATOM     56  O7  non d ame     -12.386  13.441  64.936  0.00  0.00    -0.265 OA
BRANCH  55  57
ATOM     57  O8  non d ame     -10.937  12.382  63.554  0.00  0.00    -0.317 OA
BRANCH  57  58
ATOM     58  C29 non d ame     -10.658  11.096  64.116  0.00  0.00     0.052 C 
ATOM     59  H47 non d ame     -10.396  11.279  65.157  0.00  0.00     0.082 H 
ATOM     60  H48 non d ame     -11.520  10.475  63.873  0.00  0.00     0.082 H 
BRANCH  58  61
ATOM     61  C35 non d ame      -9.414  10.517  63.391  0.00  0.00    -0.034 A 
ATOM     62  C30 non d ame      -8.826   9.343  63.848  0.00  0.00    -0.075 A 
ATOM     63  C31 non d ame      -7.709   8.822  63.196  0.00  0.00    -0.082 A 
ATOM     64  H49 non d ame      -9.239   8.830  64.716  0.00  0.00     0.084 H 
ATOM     65  C32 non d ame      -7.179   9.482  62.084  0.00  0.00    -0.083 A 
ATOM     66  H50 non d ame      -7.251   7.901  63.556  0.00  0.00     0.083 H 
ATOM     67  C33 non d ame      -7.768  10.655  61.633  0.00  0.00    -0.082 A 
ATOM     68  H51 non d ame      -6.306   9.081  61.569  0.00  0.00     0.083 H 
ATOM     69  C34 non d ame      -8.886  11.178  62.280  0.00  0.00    -0.075 A 
ATOM     70  H52 non d ame      -7.351  11.169  60.767  0.00  0.00     0.083 H 
ATOM     71  H53 non d ame      -9.344  12.100  61.919  0.00  0.00     0.084 H 
ENDBRANCH  58  61
ENDBRANCH  57  58
ENDBRANCH  55  57
ENDBRANCH  52  55
ENDBRANCH  49  52
ENDBRANCH  47  49
BRANCH  47  72
ATOM     72  C24 non d ame      -9.336  16.882  66.961  0.00  0.00    -0.039 C 
ATOM     73  H35 non d ame      -9.250  16.776  68.042  0.00  0.00     0.036 H 
ATOM     74  H36 non d ame      -8.618  16.389  66.306  0.00  0.00     0.036 H 
BRANCH  72  75
ATOM     75  C25 non d ame      -9.274  18.450  66.635  0.00  0.00    -0.001 C 
ATOM     76  C26 non d ame      -7.864  18.808  65.869  0.00  0.00    -0.035 C 
ATOM     77  C27 non d ame      -7.267  19.840  66.512  0.00  0.00     0.085 C 
ATOM     78  H38 non d ame      -7.155  17.989  65.989  0.00  0.00     0.036 H 
ATOM     79  H39 non d ame      -8.069  19.210  64.876  0.00  0.00     0.036 H 
ATOM     80  N5  non d ame      -7.976  20.005  67.834  0.00  0.00    -0.049 N 
ATOM     81  H40 non d ame      -6.243  19.516  66.695  0.00  0.00     0.075 H 
ATOM     82  H41 non d ame      -7.460  20.717  65.895  0.00  0.00     0.075 H 
ATOM     83  C28 non d ame      -9.344  19.155  67.715  0.00  0.00     0.193 C 
ATOM     84  H42 non d ame      -7.388  19.570  68.530  0.00  0.00     0.280 HD
ATOM     85  H43 non d ame      -8.212  20.983  67.913  0.00  0.00     0.280 HD
ATOM     86  H44 non d ame     -10.298  19.660  67.561  0.00  0.00     0.129 H 
ATOM     87  H37 non d ame     -10.194  18.813  66.176  0.00  0.00     0.046 H 
BRANCH  83  88
ATOM     88  O6  non d ame      -9.523  18.345  68.877  0.00  0.00    -0.369 OA
ATOM     89  H45 non d ame      -8.710  17.871  69.066  0.00  0.00     0.212 HD
ENDBRANCH  83  88
ENDBRANCH  72  75
ENDBRANCH  47  72
ENDBRANCH  45  47
ENDBRANCH   1  43
BRANCH   1  90
ATOM     90  C16 non d ame     -11.855  14.649  71.216  0.00  0.00    -0.035 C 
ATOM     91  H21 non d ame     -11.072  14.047  71.678  0.00  0.00     0.037 H 
ATOM     92  H22 non d ame     -11.751  15.732  71.166  0.00  0.00     0.037 H 
BRANCH  90  93
ATOM     93  C17 non d ame     -13.162  14.366  72.023  0.00  0.00    -0.059 C 
ATOM     94  H23 non d ame     -13.011  14.736  73.037  0.00  0.00     0.038 H 
BRANCH  93  95
ATOM     95  C18 non d ame     -14.398  15.109  71.423  0.00  0.00    -0.073 C 
ATOM     96  H24 non d ame     -14.847  15.743  72.188  0.00  0.00     0.028 H 
ATOM     97  H25 non d ame     -14.079  15.725  70.583  0.00  0.00     0.028 H 
ATOM     98  H26 non d ame     -15.131  14.378  71.081  0.00  0.00     0.028 H 
ENDBRANCH  93  95
BRANCH  93  99
ATOM     99  C19 non d ame     -13.427  12.861  72.124  0.00  0.00    -0.073 C 
ATOM    100  H27 non d ame     -13.302  12.540  73.158  0.00  0.00     0.028 H 
ATOM    101  H28 non d ame     -14.444  12.648  71.797  0.00  0.00     0.028 H 
ATOM    102  H29 non d ame     -12.721  12.325  71.490  0.00  0.00     0.028 H 
ENDBRANCH  93  99
ENDBRANCH  90  93
ENDBRANCH   1  90
TORSDOF 26
ENDMDL
MODEL 4
REMARK VINA RESULT:      -6.8      2.914      7.749
REMARK  26 active torsions:
REMARK  status: ('A' for Active; 'I' for Inactive)
REMARK    1  A    between atoms: C2_2  and  C3_3 
REMARK    2  A    between atoms: C4_6  and  C5_7 
REMARK       I    between atoms: C5_7  and  N2_9 
REMARK    3  A    between atoms: N2_9  and  C6_10 
REMARK    4  A    between atoms: C6_10  and  C7_11 
REMARK    5  A    between atoms: C6_10  and  C8_13 
REMARK       I    between atoms: C7_11  and  N3_14 
REMARK    6  A    between atoms: N3_14  and  C9_15 
REMARK    7  A    between atoms: C9_15  and  C10_16 
REMARK    8  A    between atoms: C9_15  and  C11_18 
REMARK       I    between atoms: C10_16  and  N4_21 
REMARK    9  A    between atoms: C11_18  and  C12_19 
REMARK   10  A    between atoms: C11_18  and  C13_20 
REMARK   11  A    between atoms: N4_21  and  C14_22 
REMARK   12  A    between atoms: C14_22  and  C15_23 
REMARK   13  A    between atoms: C14_22  and  C16_25 
REMARK       I    between atoms: C15_23  and  N6_40 
REMARK   14  A    between atoms: C16_25  and  C17_26 
REMARK   15  A    between atoms: C17_26  and  C18_27 
REMARK   16  A    between atoms: C17_26  and  C19_28 
REMARK   17  A    between atoms: C20_29  and  C21_30 
REMARK   18  A    between atoms: C20_29  and  C24_33 
REMARK   19  A    between atoms: C20_29  and  N6_40 
REMARK   20  A    between atoms: C21_30  and  C22_31 
REMARK   21  A    between atoms: C22_31  and  C23_32 
REMARK   22  A    between atoms: C23_32  and  O8_43 
REMARK   23  A    between atoms: C24_33  and  C25_34 
REMARK   24  A    between atoms: C28_38  and  O6_39 
REMARK   25  A    between atoms: C29_42  and  O8_43 
REMARK   26  A    between atoms: C29_42  and  C35_49 
ROOT
ATOM      1  C14 non d ame      -6.940  10.379  68.175  0.00  0.00     0.089 C 
ATOM      2  H20 non d ame      -5.885  10.335  67.906  0.00  0.00     0.087 H 
ENDROOT
BRANCH   1   3
ATOM      3  N4  non d ame      -7.711  10.086  66.976  0.00  0.00    -0.346 N 
ATOM      4  C10 non d ame      -7.115  10.320  65.611  0.00  0.00     0.241 C 
ATOM      5  O4  non d ame      -6.013  10.748  65.503  0.00  0.00    -0.271 OA
ATOM      6  H19 non d ame      -8.649   9.725  67.090  0.00  0.00     0.163 HD
BRANCH   4   7
ATOM      7  C9  non d ame      -7.925  10.007  64.381  0.00  0.00     0.092 C 
ATOM      8  H11 non d ame      -8.439   9.056  64.522  0.00  0.00     0.088 H 
BRANCH   7   9
ATOM      9  N3  non d ame      -8.958  11.032  64.200  0.00  0.00    -0.346 N 
ATOM     10  C7  non d ame     -10.212  10.926  64.904  0.00  0.00     0.240 C 
ATOM     11  O3  non d ame     -10.408  10.020  65.619  0.00  0.00    -0.271 OA
ATOM     12  H10 non d ame      -8.803  11.818  63.585  0.00  0.00     0.163 HD
BRANCH  10  13
ATOM     13  C6  non d ame     -11.307  12.018  64.705  0.00  0.00     0.086 C 
ATOM     14  H6  non d ame     -12.139  11.914  65.401  0.00  0.00     0.086 H 
BRANCH  13  15
ATOM     15  N2  non d ame     -10.720  13.325  64.953  0.00  0.00    -0.343 N 
ATOM     16  C5  non d ame     -11.412  14.271  65.831  0.00  0.00     0.273 C 
ATOM     17  O2  non d ame     -12.440  13.973  66.330  0.00  0.00    -0.266 OA
ATOM     18  H5  non d ame      -9.841  13.572  64.521  0.00  0.00     0.163 HD
BRANCH  16  19
ATOM     19  C4  non d ame     -10.801  15.655  66.104  0.00  0.00     0.154 A 
ATOM     20  C1  non d ame     -10.691  16.317  67.368  0.00  0.00    -0.017 A 
ATOM     21  C2  non d ame     -10.063  17.549  67.080  0.00  0.00     0.077 A 
ATOM     22  H1  non d ame     -11.016  15.958  68.345  0.00  0.00     0.091 H 
ATOM     23  O1  non d ame      -9.841  17.581  65.798  0.00  0.00    -0.218 OA
ATOM     24  N1  non d ame     -10.264  16.486  65.207  0.00  0.00    -0.123 NA
BRANCH  21  25
ATOM     25  C3  non d ame      -9.708  18.637  68.084  0.00  0.00    -0.029 C 
ATOM     26  H2  non d ame      -8.958  19.301  67.653  0.00  0.00     0.036 H 
ATOM     27  H3  non d ame     -10.602  19.210  68.329  0.00  0.00     0.036 H 
ATOM     28  H4  non d ame      -9.311  18.180  68.991  0.00  0.00     0.036 H 
ENDBRANCH  21  25
ENDBRANCH  16  19
ENDBRANCH  13  15
BRANCH  13  29
ATOM     29  C8  non d ame     -11.838  11.951  63.296  0.00  0.00    -0.049 C 
ATOM     30  H7  non d ame     -12.642  12.677  63.175  0.00  0.00     0.030 H 
ATOM     31  H8  non d ame     -11.035  12.178  62.594  0.00  0.00     0.030 H 
ATOM     32  H9  non d ame     -12.221  10.951  63.099  0.00  0.00     0.030 H 
ENDBRANCH  13  29
ENDBRANCH  10  13
ENDBRANCH   7   9
BRANCH   7  33
ATOM     33  C11 non d ame      -6.992   9.989  63.135  0.00  0.00    -0.033 C 
ATOM     34  H12 non d ame      -6.086  10.537  63.395  0.00  0.00     0.042 H 
BRANCH  33  35
ATOM     35  C12 non d ame      -6.569   8.533  62.763  0.00  0.00    -0.071 C 
ATOM     36  H13 non d ame      -5.485   8.485  62.661  0.00  0.00     0.028 H 
ATOM     37  H14 non d ame      -6.891   7.849  63.548  0.00  0.00     0.028 H 
ATOM     38  H15 non d ame      -7.037   8.250  61.821  0.00  0.00     0.028 H 
ENDBRANCH  33  35
BRANCH  33  39
ATOM     39  C13 non d ame      -7.663  10.711  61.923  0.00  0.00    -0.071 C 
ATOM     40  H16 non d ame      -7.608  10.071  61.043  0.00  0.00     0.028 H 
ATOM     41  H17 non d ame      -8.707  10.920  62.157  0.00  0.00     0.028 H 
ATOM     42  H18 non d ame      -7.141  11.647  61.725  0.00  0.00     0.028 H 
ENDBRANCH  33  39
ENDBRANCH   7  33
ENDBRANCH   4   7
ENDBRANCH   1   3
BRANCH   1  43
ATOM     43  C15 non d ame      -7.312   9.338  69.270  0.00  0.00     0.240 C 
ATOM     44  O5  non d ame      -6.451   8.759  69.851  0.00  0.00    -0.271 OA
ATOM     45  N6  non d ame      -8.740   9.069  69.600  0.00  0.00    -0.355 N 
ATOM     46  H46 non d ame      -9.480   9.558  69.116  0.00  0.00     0.162 HD
BRANCH  45  47
ATOM     47  C20 non d ame      -9.077   8.077  70.644  0.00  0.00     0.013 C 
ATOM     48  H30 non d ame      -8.147   7.757  71.114  0.00  0.00     0.072 H 
BRANCH  47  49
ATOM     49  C21 non d ame      -9.767   6.893  70.005  0.00  0.00    -0.038 C 
ATOM     50  H31 non d ame     -10.250   6.357  70.822  0.00  0.00     0.036 H 
ATOM     51  H32 non d ame     -10.366   7.305  69.192  0.00  0.00     0.036 H 
BRANCH  49  52
ATOM     52  C22 non d ame      -8.777   5.901  69.357  0.00  0.00     0.018 C 
ATOM     53  H33 non d ame      -7.788   6.199  69.706  0.00  0.00     0.048 H 
ATOM     54  H34 non d ame      -9.160   4.907  69.590  0.00  0.00     0.048 H 
BRANCH  52  55
ATOM     55  C23 non d ame      -8.727   5.990  67.807  0.00  0.00     0.259 C 
ATOM     56  O7  non d ame      -8.612   7.042  67.267  0.00  0.00    -0.265 OA
BRANCH  55  57
ATOM     57  O8  non d ame      -8.835   4.799  67.036  0.00  0.00    -0.317 OA
BRANCH  57  58
ATOM     58  C29 non d ame     -10.086   4.655  66.357  0.00  0.00     0.052 C 
ATOM     59  H47 non d ame     -10.508   3.715  66.711  0.00  0.00     0.082 H 
ATOM     60  H48 non d ame     -10.622   5.590  66.525  0.00  0.00     0.082 H 
BRANCH  58  61
ATOM     61  C35 non d ame      -9.795   4.523  64.839  0.00  0.00    -0.034 A 
ATOM     62  C30 non d ame     -10.597   3.710  64.044  0.00  0.00    -0.075 A 
ATOM     63  C31 non d ame     -10.335   3.590  62.681  0.00  0.00    -0.082 A 
ATOM     64  H49 non d ame     -11.429   3.167  64.490  0.00  0.00     0.084 H 
ATOM     65  C32 non d ame      -9.265   4.286  62.112  0.00  0.00    -0.083 A 
ATOM     66  H50 non d ame     -10.966   2.954  62.060  0.00  0.00     0.083 H 
ATOM     67  C33 non d ame      -8.465   5.094  62.909  0.00  0.00    -0.082 A 
ATOM     68  H51 non d ame      -9.053   4.198  61.046  0.00  0.00     0.083 H 
ATOM     69  C34 non d ame      -8.725   5.218  64.272  0.00  0.00    -0.075 A 
ATOM     70  H52 non d ame      -7.629   5.634  62.463  0.00  0.00     0.083 H 
ATOM     71  H53 non d ame      -8.093   5.855  64.892  0.00  0.00     0.084 H 
ENDBRANCH  58  61
ENDBRANCH  57  58
ENDBRANCH  55  57
ENDBRANCH  52  55
ENDBRANCH  49  52
ENDBRANCH  47  49
BRANCH  47  72
ATOM     72  C24 non d ame     -10.005   8.711  71.678  0.00  0.00    -0.039 C 
ATOM     73  H35 non d ame     -10.037   8.008  72.509  0.00  0.00     0.036 H 
ATOM     74  H36 non d ame      -9.621   9.720  71.833  0.00  0.00     0.036 H 
BRANCH  72  75
ATOM     75  C25 non d ame     -11.501   8.855  71.122  0.00  0.00    -0.001 C 
ATOM     76  C26 non d ame     -11.846  10.438  70.843  0.00  0.00    -0.035 C 
ATOM     77  C27 non d ame     -13.011  10.747  71.461  0.00  0.00     0.085 C 
ATOM     78  H38 non d ame     -11.116  11.073  71.346  0.00  0.00     0.036 H 
ATOM     79  H39 non d ame     -12.068  10.593  69.787  0.00  0.00     0.036 H 
ATOM     80  N5  non d ame     -13.326   9.610  72.403  0.00  0.00    -0.049 N 
ATOM     81  H40 non d ame     -12.804  11.645  72.043  0.00  0.00     0.075 H 
ATOM     82  H41 non d ame     -13.761  10.770  70.671  0.00  0.00     0.075 H 
ATOM     83  C28 non d ame     -12.360   8.392  71.968  0.00  0.00     0.193 C 
ATOM     84  H42 non d ame     -13.055   9.921  73.326  0.00  0.00     0.280 HD
ATOM     85  H43 non d ame     -14.282   9.343  72.221  0.00  0.00     0.280 HD
ATOM     86  H44 non d ame     -12.756   7.545  71.406  0.00  0.00     0.129 H 
ATOM     87  H37 non d ame     -11.711   8.152  70.316  0.00  0.00     0.046 H 
BRANCH  83  88
ATOM     88  O6  non d ame     -11.732   7.826  73.119  0.00  0.00    -0.369 OA
ATOM     89  H45 non d ame     -11.189   8.491  73.547  0.00  0.00     0.212 HD
ENDBRANCH  83  88
ENDBRANCH  72  75
ENDBRANCH  47  72
ENDBRANCH  45  47
ENDBRANCH   1  43
BRANCH   1  90
ATOM     90  C16 non d ame      -7.289  11.778  68.661  0.00  0.00    -0.035 C 
ATOM     91  H21 non d ame      -7.778  11.635  69.624  0.00  0.00     0.037 H 
ATOM     92  H22 non d ame      -6.360  12.344  68.600  0.00  0.00     0.037 H 
BRANCH  90  93
ATOM     93  C17 non d ame      -8.318  12.518  67.750  0.00  0.00    -0.059 C 
ATOM     94  H23 non d ame      -8.410  11.950  66.825  0.00  0.00     0.038 H 
BRANCH  93  95
ATOM     95  C18 non d ame      -9.734  12.599  68.403  0.00  0.00    -0.073 C 
ATOM     96  H24 non d ame     -10.100  11.591  68.602  0.00  0.00     0.028 H 
ATOM     97  H25 non d ame      -9.671  13.153  69.340  0.00  0.00     0.028 H 
ATOM     98  H26 non d ame     -10.419  13.107  67.726  0.00  0.00     0.028 H 
ENDBRANCH  93  95
BRANCH  93  99
ATOM     99  C19 non d ame      -7.811  13.914  67.375  0.00  0.00    -0.073 C 
ATOM    100  H27 non d ame      -8.566  14.656  67.634  0.00  0.00     0.028 H 
ATOM    101  H28 non d ame      -6.891  14.125  67.921  0.00  0.00     0.028 H 
ATOM    102  H29 non d ame      -7.615  13.954  66.304  0.00  0.00     0.028 H 
ENDBRANCH  93  99
ENDBRANCH  90  93
ENDBRANCH   1  90
TORSDOF 26
ENDMDL
MODEL 5
REMARK VINA RESULT:      -6.8      2.121      5.725
REMARK  26 active torsions:
REMARK  status: ('A' for Active; 'I' for Inactive)
REMARK    1  A    between atoms: C2_2  and  C3_3 
REMARK    2  A    between atoms: C4_6  and  C5_7 
REMARK       I    between atoms: C5_7  and  N2_9 
REMARK    3  A    between atoms: N2_9  and  C6_10 
REMARK    4  A    between atoms: C6_10  and  C7_11 
REMARK    5  A    between atoms: C6_10  and  C8_13 
REMARK       I    between atoms: C7_11  and  N3_14 
REMARK    6  A    between atoms: N3_14  and  C9_15 
REMARK    7  A    between atoms: C9_15  and  C10_16 
REMARK    8  A    between atoms: C9_15  and  C11_18 
REMARK       I    between atoms: C10_16  and  N4_21 
REMARK    9  A    between atoms: C11_18  and  C12_19 
REMARK   10  A    between atoms: C11_18  and  C13_20 
REMARK   11  A    between atoms: N4_21  and  C14_22 
REMARK   12  A    between atoms: C14_22  and  C15_23 
REMARK   13  A    between atoms: C14_22  and  C16_25 
REMARK       I    between atoms: C15_23  and  N6_40 
REMARK   14  A    between atoms: C16_25  and  C17_26 
REMARK   15  A    between atoms: C17_26  and  C18_27 
REMARK   16  A    between atoms: C17_26  and  C19_28 
REMARK   17  A    between atoms: C20_29  and  C21_30 
REMARK   18  A    between atoms: C20_29  and  C24_33 
REMARK   19  A    between atoms: C20_29  and  N6_40 
REMARK   20  A    between atoms: C21_30  and  C22_31 
REMARK   21  A    between atoms: C22_31  and  C23_32 
REMARK   22  A    between atoms: C23_32  and  O8_43 
REMARK   23  A    between atoms: C24_33  and  C25_34 
REMARK   24  A    between atoms: C28_38  and  O6_39 
REMARK   25  A    between atoms: C29_42  and  O8_43 
REMARK   26  A    between atoms: C29_42  and  C35_49 
ROOT
ATOM      1  C14 non d ame     -12.007  13.792  69.573  0.00  0.00     0.089 C 
ATOM      2  H20 non d ame     -13.001  13.702  69.136  0.00  0.00     0.087 H 
ENDROOT
BRANCH   1   3
ATOM      3  N4  non d ame     -11.609  12.471  70.035  0.00  0.00    -0.346 N 
ATOM      4  C10 non d ame     -11.817  11.263  69.157  0.00  0.00     0.241 C 
ATOM      5  O4  non d ame     -12.308  11.379  68.083  0.00  0.00    -0.271 OA
ATOM      6  H19 non d ame     -11.195  12.394  70.954  0.00  0.00     0.163 HD
BRANCH   4   7
ATOM      7  C9  non d ame     -11.394   9.904  69.649  0.00  0.00     0.092 C 
ATOM      8  H11 non d ame     -11.991   9.140  69.150  0.00  0.00     0.088 H 
BRANCH   7   9
ATOM      9  N3  non d ame      -9.994   9.665  69.286  0.00  0.00    -0.346 N 
ATOM     10  C7  non d ame      -9.674   9.007  68.044  0.00  0.00     0.240 C 
ATOM     11  O3  non d ame     -10.530   8.660  67.325  0.00  0.00    -0.271 OA
ATOM     12  H10 non d ame      -9.245   9.956  69.897  0.00  0.00     0.163 HD
BRANCH  10  13
ATOM     13  C6  non d ame      -8.182   8.753  67.664  0.00  0.00     0.086 C 
ATOM     14  H6  non d ame      -8.045   8.547  66.603  0.00  0.00     0.086 H 
BRANCH  13  15
ATOM     15  N2  non d ame      -7.411   9.949  67.959  0.00  0.00    -0.343 N 
ATOM     16  C5  non d ame      -6.816  10.712  66.859  0.00  0.00     0.273 C 
ATOM     17  O2  non d ame      -6.961  10.354  65.742  0.00  0.00    -0.266 OA
ATOM     18  H5  non d ame      -7.289  10.247  68.916  0.00  0.00     0.163 HD
BRANCH  16  19
ATOM     19  C4  non d ame      -6.000  11.980  67.155  0.00  0.00     0.154 A 
ATOM     20  C1  non d ame      -6.403  13.102  67.947  0.00  0.00    -0.017 A 
ATOM     21  C2  non d ame      -5.305  13.990  67.906  0.00  0.00     0.077 A 
ATOM     22  H1  non d ame      -7.348  13.250  68.472  0.00  0.00     0.091 H 
ATOM     23  O1  non d ame      -4.383  13.433  67.175  0.00  0.00    -0.218 OA
ATOM     24  N1  non d ame      -4.767  12.260  66.725  0.00  0.00    -0.123 NA
BRANCH  21  25
ATOM     25  C3  non d ame      -5.216  15.346  68.592  0.00  0.00    -0.029 C 
ATOM     26  H2  non d ame      -4.762  15.226  69.577  0.00  0.00     0.036 H 
ATOM     27  H3  non d ame      -4.604  16.018  67.991  0.00  0.00     0.036 H 
ATOM     28  H4  non d ame      -6.216  15.766  68.702  0.00  0.00     0.036 H 
ENDBRANCH  21  25
ENDBRANCH  16  19
ENDBRANCH  13  15
BRANCH  13  29
ATOM     29  C8  non d ame      -7.649   7.588  68.459  0.00  0.00    -0.049 C 
ATOM     30  H7  non d ame      -7.561   6.715  67.811  0.00  0.00     0.030 H 
ATOM     31  H8  non d ame      -6.667   7.841  68.861  0.00  0.00     0.030 H 
ATOM     32  H9  non d ame      -8.331   7.364  69.278  0.00  0.00     0.030 H 
ENDBRANCH  13  29
ENDBRANCH  10  13
ENDBRANCH   7   9
BRANCH   7  33
ATOM     33  C11 non d ame     -11.543   9.843  71.198  0.00  0.00    -0.033 C 
ATOM     34  H12 non d ame     -11.256  10.817  71.594  0.00  0.00     0.042 H 
BRANCH  33  35
ATOM     35  C12 non d ame     -13.024   9.584  71.617  0.00  0.00    -0.071 C 
ATOM     36  H13 non d ame     -13.144   8.538  71.900  0.00  0.00     0.028 H 
ATOM     37  H14 non d ame     -13.279  10.221  72.463  0.00  0.00     0.028 H 
ATOM     38  H15 non d ame     -13.683   9.813  70.779  0.00  0.00     0.028 H 
ENDBRANCH  33  35
BRANCH  33  39
ATOM     39  C13 non d ame     -10.586   8.770  71.810  0.00  0.00    -0.071 C 
ATOM     40  H16 non d ame     -10.791   8.665  72.875  0.00  0.00     0.028 H 
ATOM     41  H17 non d ame     -10.746   7.813  71.312  0.00  0.00     0.028 H 
ATOM     42  H18 non d ame      -9.552   9.085  71.668  0.00  0.00     0.028 H 
ENDBRANCH  33  39
ENDBRANCH   7  33
ENDBRANCH   4   7
ENDBRANCH   1   3
BRANCH   1  43
ATOM     43  C15 non d ame     -10.955  14.294  68.542  0.00  0.00     0.240 C 
ATOM     44  O5  non d ame      -9.812  14.379  68.859  0.00  0.00    -0.271 OA
ATOM     45  N6  non d ame     -11.370  14.659  67.158  0.00  0.00    -0.355 N 
ATOM     46  H46 non d ame     -12.337  14.586  66.877  0.00  0.00     0.162 HD
BRANCH  45  47
ATOM     47  C20 non d ame     -10.358  15.132  66.190  0.00  0.00     0.013 C 
ATOM     48  H30 non d ame      -9.373  14.976  66.631  0.00  0.00     0.072 H 
BRANCH  47  49
ATOM     49  C21 non d ame     -10.574  16.604  65.919  0.00  0.00    -0.038 C 
ATOM     50  H31 non d ame      -9.886  16.860  65.113  0.00  0.00     0.036 H 
ATOM     51  H32 non d ame     -11.649  16.721  65.777  0.00  0.00     0.036 H 
BRANCH  49  52
ATOM     52  C22 non d ame     -10.194  17.497  67.120  0.00  0.00     0.018 C 
ATOM     53  H33 non d ame     -11.118  17.652  67.678  0.00  0.00     0.048 H 
ATOM     54  H34 non d ame      -9.345  17.005  67.597  0.00  0.00     0.048 H 
BRANCH  52  55
ATOM     55  C23 non d ame      -9.697  18.912  66.714  0.00  0.00     0.259 C 
ATOM     56  O7  non d ame     -10.240  19.883  67.130  0.00  0.00    -0.265 OA
BRANCH  55  57
ATOM     57  O8  non d ame      -8.591  19.036  65.828  0.00  0.00    -0.317 OA
BRANCH  57  58
ATOM     58  C29 non d ame      -7.414  18.349  66.263  0.00  0.00     0.052 C 
ATOM     59  H47 non d ame      -7.759  17.395  66.662  0.00  0.00     0.082 H 
ATOM     60  H48 non d ame      -6.731  18.369  65.415  0.00  0.00     0.082 H 
BRANCH  58  61
ATOM     61  C35 non d ame      -6.784  19.167  67.421  0.00  0.00    -0.034 A 
ATOM     62  C30 non d ame      -6.206  20.405  67.165  0.00  0.00    -0.075 A 
ATOM     63  C31 non d ame      -5.639  21.140  68.205  0.00  0.00    -0.082 A 
ATOM     64  H49 non d ame      -6.197  20.801  66.150  0.00  0.00     0.084 H 
ATOM     65  C32 non d ame      -5.649  20.630  69.506  0.00  0.00    -0.083 A 
ATOM     66  H50 non d ame      -5.189  22.111  68.001  0.00  0.00     0.083 H 
ATOM     67  C33 non d ame      -6.224  19.392  69.757  0.00  0.00    -0.082 A 
ATOM     68  H51 non d ame      -5.208  21.198  70.325  0.00  0.00     0.083 H 
ATOM     69  C34 non d ame      -6.794  18.655  68.720  0.00  0.00    -0.075 A 
ATOM     70  H52 non d ame      -6.229  18.996  70.773  0.00  0.00     0.083 H 
ATOM     71  H53 non d ame      -7.245  17.683  68.926  0.00  0.00     0.084 H 
ENDBRANCH  58  61
ENDBRANCH  57  58
ENDBRANCH  55  57
ENDBRANCH  52  55
ENDBRANCH  49  52
ENDBRANCH  47  49
BRANCH  47  72
ATOM     72  C24 non d ame     -10.485  14.349  64.885  0.00  0.00    -0.039 C 
ATOM     73  H35 non d ame     -11.137  14.949  64.249  0.00  0.00     0.036 H 
ATOM     74  H36 non d ame      -9.463  14.138  64.572  0.00  0.00     0.036 H 
BRANCH  72  75
ATOM     75  C25 non d ame     -11.212  12.939  65.109  0.00  0.00    -0.001 C 
ATOM     76  C26 non d ame     -10.090  11.743  65.232  0.00  0.00    -0.035 C 
ATOM     77  C27 non d ame     -10.414  10.750  64.371  0.00  0.00     0.085 C 
ATOM     78  H38 non d ame      -9.127  12.096  64.862  0.00  0.00     0.036 H 
ATOM     79  H39 non d ame     -10.157  11.266  66.210  0.00  0.00     0.036 H 
ATOM     80  N5  non d ame     -11.469  11.298  63.441  0.00  0.00    -0.049 N 
ATOM     81  H40 non d ame      -9.507  10.549  63.801  0.00  0.00     0.075 H 
ATOM     82  H41 non d ame     -10.857   9.966  64.985  0.00  0.00     0.075 H 
ATOM     83  C28 non d ame     -12.002  12.659  64.127  0.00  0.00     0.193 C 
ATOM     84  H42 non d ame     -10.995  11.536  62.580  0.00  0.00     0.280 HD
ATOM     85  H43 non d ame     -12.222  10.626  63.432  0.00  0.00     0.280 HD
ATOM     86  H44 non d ame     -12.967  12.682  64.635  0.00  0.00     0.129 H 
ATOM     87  H37 non d ame     -11.973  12.986  65.887  0.00  0.00     0.046 H 
BRANCH  83  88
ATOM     88  O6  non d ame     -12.055  13.710  63.161  0.00  0.00    -0.369 OA
ATOM     89  H45 non d ame     -11.245  14.223  63.202  0.00  0.00     0.212 HD
ENDBRANCH  83  88
ENDBRANCH  72  75
ENDBRANCH  47  72
ENDBRANCH  45  47
ENDBRANCH   1  43
BRANCH   1  90
ATOM     90  C16 non d ame     -12.052  14.742  70.761  0.00  0.00    -0.035 C 
ATOM     91  H21 non d ame     -11.060  14.687  71.210  0.00  0.00     0.037 H 
ATOM     92  H22 non d ame     -12.417  15.687  70.360  0.00  0.00     0.037 H 
BRANCH  90  93
ATOM     93  C17 non d ame     -13.063  14.311  71.869  0.00  0.00    -0.059 C 
ATOM     94  H23 non d ame     -13.084  13.221  71.892  0.00  0.00     0.038 H 
BRANCH  93  95
ATOM     95  C18 non d ame     -12.634  14.809  73.286  0.00  0.00    -0.073 C 
ATOM     96  H24 non d ame     -13.144  14.220  74.048  0.00  0.00     0.028 H 
ATOM     97  H25 non d ame     -11.556  14.693  73.401  0.00  0.00     0.028 H 
ATOM     98  H26 non d ame     -12.900  15.859  73.398  0.00  0.00     0.028 H 
ENDBRANCH  93  95
BRANCH  93  99
ATOM     99  C19 non d ame     -14.479  14.785  71.531  0.00  0.00    -0.073 C 
ATOM    100  H27 non d ame     -14.542  15.864  71.664  0.00  0.00     0.028 H 
ATOM    101  H28 non d ame     -14.709  14.532  70.496  0.00  0.00     0.028 H 
ATOM    102  H29 non d ame     -15.193  14.295  72.192  0.00  0.00     0.028 H 
ENDBRANCH  93  99
ENDBRANCH  90  93
ENDBRANCH   1  90
TORSDOF 26
ENDMDL
MODEL 6
REMARK VINA RESULT:      -6.7      2.950      9.259
REMARK  26 active torsions:
REMARK  status: ('A' for Active; 'I' for Inactive)
REMARK    1  A    between atoms: C2_2  and  C3_3 
REMARK    2  A    between atoms: C4_6  and  C5_7 
REMARK       I    between atoms: C5_7  and  N2_9 
REMARK    3  A    between atoms: N2_9  and  C6_10 
REMARK    4  A    between atoms: C6_10  and  C7_11 
REMARK    5  A    between atoms: C6_10  and  C8_13 
REMARK       I    between atoms: C7_11  and  N3_14 
REMARK    6  A    between atoms: N3_14  and  C9_15 
REMARK    7  A    between atoms: C9_15  and  C10_16 
REMARK    8  A    between atoms: C9_15  and  C11_18 
REMARK       I    between atoms: C10_16  and  N4_21 
REMARK    9  A    between atoms: C11_18  and  C12_19 
REMARK   10  A    between atoms: C11_18  and  C13_20 
REMARK   11  A    between atoms: N4_21  and  C14_22 
REMARK   12  A    between atoms: C14_22  and  C15_23 
REMARK   13  A    between atoms: C14_22  and  C16_25 
REMARK       I    between atoms: C15_23  and  N6_40 
REMARK   14  A    between atoms: C16_25  and  C17_26 
REMARK   15  A    between atoms: C17_26  and  C18_27 
REMARK   16  A    between atoms: C17_26  and  C19_28 
REMARK   17  A    between atoms: C20_29  and  C21_30 
REMARK   18  A    between atoms: C20_29  and  C24_33 
REMARK   19  A    between atoms: C20_29  and  N6_40 
REMARK   20  A    between atoms: C21_30  and  C22_31 
REMARK   21  A    between atoms: C22_31  and  C23_32 
REMARK   22  A    between atoms: C23_32  and  O8_43 
REMARK   23  A    between atoms: C24_33  and  C25_34 
REMARK   24  A    between atoms: C28_38  and  O6_39 
REMARK   25  A    between atoms: C29_42  and  O8_43 
REMARK   26  A    between atoms: C29_42  and  C35_49 
ROOT
ATOM      1  C14 non d ame      -8.808   6.724  66.525  0.00  0.00     0.089 C 
ATOM      2  H20 non d ame      -9.134   6.213  65.619  0.00  0.00     0.087 H 
ENDROOT
BRANCH   1   3
ATOM      3  N4  non d ame      -8.357   8.053  66.141  0.00  0.00    -0.346 N 
ATOM      4  C10 non d ame      -8.055   8.367  64.697  0.00  0.00     0.241 C 
ATOM      5  O4  non d ame      -8.181   7.533  63.862  0.00  0.00    -0.271 OA
ATOM      6  H19 non d ame      -8.254   8.748  66.867  0.00  0.00     0.163 HD
BRANCH   4   7
ATOM      7  C9  non d ame      -7.595   9.750  64.317  0.00  0.00     0.092 C 
ATOM      8  H11 non d ame      -7.545   9.825  63.230  0.00  0.00     0.088 H 
BRANCH   7   9
ATOM      9  N3  non d ame      -8.578  10.736  64.774  0.00  0.00    -0.346 N 
ATOM     10  C7  non d ame      -9.612  11.193  63.879  0.00  0.00     0.240 C 
ATOM     11  O3  non d ame      -9.667  10.778  62.785  0.00  0.00    -0.271 OA
ATOM     12  H10 non d ame      -8.542  11.104  65.714  0.00  0.00     0.163 HD
BRANCH  10  13
ATOM     13  C6  non d ame     -10.653  12.245  64.371  0.00  0.00     0.086 C 
ATOM     14  H6  non d ame     -11.101  11.980  65.328  0.00  0.00     0.086 H 
BRANCH  13  15
ATOM     15  N2  non d ame      -9.980  13.518  64.565  0.00  0.00    -0.343 N 
ATOM     16  C5  non d ame     -10.491  14.459  65.565  0.00  0.00     0.273 C 
ATOM     17  O2  non d ame     -11.444  14.182  66.206  0.00  0.00    -0.266 OA
ATOM     18  H5  non d ame      -9.167  13.748  64.012  0.00  0.00     0.163 HD
BRANCH  16  19
ATOM     19  C4  non d ame      -9.788  15.808  65.783  0.00  0.00     0.154 A 
ATOM     20  C1  non d ame      -8.471  16.023  66.302  0.00  0.00    -0.017 A 
ATOM     21  C2  non d ame      -8.305  17.426  66.302  0.00  0.00     0.077 A 
ATOM     22  H1  non d ame      -7.748  15.275  66.630  0.00  0.00     0.091 H 
ATOM     23  O1  non d ame      -9.402  17.946  65.834  0.00  0.00    -0.218 OA
ATOM     24  N1  non d ame     -10.282  17.021  65.525  0.00  0.00    -0.123 NA
BRANCH  21  25
ATOM     25  C3  non d ame      -7.069  18.187  66.762  0.00  0.00    -0.029 C 
ATOM     26  H2  non d ame      -6.173  17.668  66.418  0.00  0.00     0.036 H 
ATOM     27  H3  non d ame      -7.087  19.194  66.346  0.00  0.00     0.036 H 
ATOM     28  H4  non d ame      -7.060  18.244  67.851  0.00  0.00     0.036 H 
ENDBRANCH  21  25
ENDBRANCH  16  19
ENDBRANCH  13  15
BRANCH  13  29
ATOM     29  C8  non d ame     -11.748  12.392  63.345  0.00  0.00    -0.049 C 
ATOM     30  H7  non d ame     -11.382  12.061  62.372  0.00  0.00     0.030 H 
ATOM     31  H8  non d ame     -12.604  11.783  63.637  0.00  0.00     0.030 H 
ATOM     32  H9  non d ame     -12.049  13.436  63.282  0.00  0.00     0.030 H 
ENDBRANCH  13  29
ENDBRANCH  10  13
ENDBRANCH   7   9
BRANCH   7  33
ATOM     33  C11 non d ame      -6.220  10.042  64.987  0.00  0.00    -0.033 C 
ATOM     34  H12 non d ame      -5.838   9.098  65.378  0.00  0.00     0.042 H 
BRANCH  33  35
ATOM     35  C12 non d ame      -5.183  10.573  63.949  0.00  0.00    -0.071 C 
ATOM     36  H13 non d ame      -5.184   9.926  63.071  0.00  0.00     0.028 H 
ATOM     37  H14 non d ame      -5.452  11.586  63.652  0.00  0.00     0.028 H 
ATOM     38  H15 non d ame      -4.190  10.577  64.398  0.00  0.00     0.028 H 
ENDBRANCH  33  35
BRANCH  33  39
ATOM     39  C13 non d ame      -6.381  11.032  66.184  0.00  0.00    -0.071 C 
ATOM     40  H16 non d ame      -5.679  11.857  66.070  0.00  0.00     0.028 H 
ATOM     41  H17 non d ame      -7.400  11.421  66.200  0.00  0.00     0.028 H 
ATOM     42  H18 non d ame      -6.177  10.508  67.118  0.00  0.00     0.028 H 
ENDBRANCH  33  39
ENDBRANCH   7  33
ENDBRANCH   4   7
ENDBRANCH   1   3
BRANCH   1  43
ATOM     43  C15 non d ame      -9.957   6.871  67.563  0.00  0.00     0.240 C 
ATOM     44  O5  non d ame     -11.042   6.456  67.307  0.00  0.00    -0.271 OA
ATOM     45  N6  non d ame      -9.705   7.522  68.879  0.00  0.00    -0.355 N 
ATOM     46  H46 non d ame      -8.787   7.875  69.110  0.00  0.00     0.162 HD
BRANCH  45  47
ATOM     47  C20 non d ame     -10.808   7.654  69.856  0.00  0.00     0.013 C 
ATOM     48  H30 non d ame     -11.708   7.240  69.402  0.00  0.00     0.072 H 
BRANCH  47  49
ATOM     49  C21 non d ame     -11.018   9.116  70.179  0.00  0.00    -0.038 C 
ATOM     50  H31 non d ame     -12.096   9.243  70.281  0.00  0.00     0.036 H 
ATOM     51  H32 non d ame     -10.361   9.327  71.024  0.00  0.00     0.036 H 
BRANCH  49  52
ATOM     52  C22 non d ame     -10.573  10.053  69.036  0.00  0.00     0.018 C 
ATOM     53  H33 non d ame      -9.686  10.570  69.406  0.00  0.00     0.048 H 
ATOM     54  H34 non d ame     -10.506   9.424  68.148  0.00  0.00     0.048 H 
BRANCH  52  55
ATOM     55  C23 non d ame     -11.606  11.164  68.699  0.00  0.00     0.259 C 
ATOM     56  O7  non d ame     -11.999  11.303  67.587  0.00  0.00    -0.265 OA
BRANCH  55  57
ATOM     57  O8  non d ame     -12.068  12.023  69.734  0.00  0.00    -0.317 OA
BRANCH  57  58
ATOM     58  C29 non d ame     -11.756  13.404  69.528  0.00  0.00     0.052 C 
ATOM     59  H47 non d ame     -10.672  13.450  69.426  0.00  0.00     0.082 H 
ATOM     60  H48 non d ame     -12.394  13.731  68.707  0.00  0.00     0.082 H 
BRANCH  58  61
ATOM     61  C35 non d ame     -12.164  14.183  70.806  0.00  0.00    -0.034 A 
ATOM     62  C30 non d ame     -11.637  15.447  71.050  0.00  0.00    -0.075 A 
ATOM     63  C31 non d ame     -12.003  16.147  72.198  0.00  0.00    -0.082 A 
ATOM     64  H49 non d ame     -10.937  15.889  70.341  0.00  0.00     0.084 H 
ATOM     65  C32 non d ame     -12.898  15.577  73.107  0.00  0.00    -0.083 A 
ATOM     66  H50 non d ame     -11.589  17.138  72.385  0.00  0.00     0.083 H 
ATOM     67  C33 non d ame     -13.420  14.313  72.862  0.00  0.00    -0.082 A 
ATOM     68  H51 non d ame     -13.190  16.117  74.008  0.00  0.00     0.083 H 
ATOM     69  C34 non d ame     -13.058  13.612  71.714  0.00  0.00    -0.075 A 
ATOM     70  H52 non d ame     -14.116  13.870  73.574  0.00  0.00     0.083 H 
ATOM     71  H53 non d ame     -13.473  12.620  71.528  0.00  0.00     0.084 H 
ENDBRANCH  58  61
ENDBRANCH  57  58
ENDBRANCH  55  57
ENDBRANCH  52  55
ENDBRANCH  49  52
ENDBRANCH  47  49
BRANCH  47  72
ATOM     72  C24 non d ame     -10.460   6.894  71.133  0.00  0.00    -0.039 C 
ATOM     73  H35 non d ame     -11.342   6.298  71.366  0.00  0.00     0.036 H 
ATOM     74  H36 non d ame      -9.509   6.401  70.928  0.00  0.00     0.036 H 
BRANCH  72  75
ATOM     75  C25 non d ame     -10.220   7.887  72.367  0.00  0.00    -0.001 C 
ATOM     76  C26 non d ame      -8.612   8.169  72.557  0.00  0.00    -0.035 C 
ATOM     77  C27 non d ame      -8.276   7.938  73.848  0.00  0.00     0.085 C 
ATOM     78  H38 non d ame      -8.035   7.426  72.007  0.00  0.00     0.036 H 
ATOM     79  H39 non d ame      -8.400   9.231  72.424  0.00  0.00     0.036 H 
ATOM     80  N5  non d ame      -9.438   7.211  74.482  0.00  0.00    -0.049 N 
ATOM     81  H40 non d ame      -7.416   7.269  73.811  0.00  0.00     0.075 H 
ATOM     82  H41 non d ame      -8.183   8.923  74.305  0.00  0.00     0.075 H 
ATOM     83  C28 non d ame     -10.680   7.386  73.466  0.00  0.00     0.193 C 
ATOM     84  H42 non d ame      -9.182   6.235  74.512  0.00  0.00     0.280 HD
ATOM     85  H43 non d ame      -9.651   7.703  75.338  0.00  0.00     0.280 HD
ATOM     86  H44 non d ame     -11.481   8.093  73.687  0.00  0.00     0.129 H 
ATOM     87  H37 non d ame     -10.876   8.757  72.330  0.00  0.00     0.046 H 
BRANCH  83  88
ATOM     88  O6  non d ame     -11.326   6.130  73.257  0.00  0.00    -0.369 OA
ATOM     89  H45 non d ame     -10.689   5.494  72.925  0.00  0.00     0.212 HD
ENDBRANCH  83  88
ENDBRANCH  72  75
ENDBRANCH  47  72
ENDBRANCH  45  47
ENDBRANCH   1  43
BRANCH   1  90
ATOM     90  C16 non d ame      -7.647   5.967  67.152  0.00  0.00    -0.035 C 
ATOM     91  H21 non d ame      -6.814   6.670  67.157  0.00  0.00     0.037 H 
ATOM     92  H22 non d ame      -8.034   5.574  68.091  0.00  0.00     0.037 H 
BRANCH  90  93
ATOM     93  C17 non d ame      -7.178   4.734  66.316  0.00  0.00    -0.059 C 
ATOM     94  H23 non d ame      -7.891   4.596  65.503  0.00  0.00     0.038 H 
BRANCH  93  95
ATOM     95  C18 non d ame      -5.768   4.953  65.681  0.00  0.00    -0.073 C 
ATOM     96  H24 non d ame      -5.858   5.606  64.813  0.00  0.00     0.028 H 
ATOM     97  H25 non d ame      -5.107   5.414  66.415  0.00  0.00     0.028 H 
ATOM     98  H26 non d ame      -5.355   3.993  65.374  0.00  0.00     0.028 H 
ENDBRANCH  93  95
BRANCH  93  99
ATOM     99  C19 non d ame      -7.204   3.459  67.162  0.00  0.00    -0.073 C 
ATOM    100  H27 non d ame      -7.893   2.742  66.717  0.00  0.00     0.028 H 
ATOM    101  H28 non d ame      -6.203   3.027  67.199  0.00  0.00     0.028 H 
ATOM    102  H29 non d ame      -7.533   3.700  68.172  0.00  0.00     0.028 H 
ENDBRANCH  93  99
ENDBRANCH  90  93
ENDBRANCH   1  90
TORSDOF 26
ENDMDL
MODEL 7
REMARK VINA RESULT:      -6.5      2.033      7.710
REMARK  26 active torsions:
REMARK  status: ('A' for Active; 'I' for Inactive)
REMARK    1  A    between atoms: C2_2  and  C3_3 
REMARK    2  A    between atoms: C4_6  and  C5_7 
REMARK       I    between atoms: C5_7  and  N2_9 
REMARK    3  A    between atoms: N2_9  and  C6_10 
REMARK    4  A    between atoms: C6_10  and  C7_11 
REMARK    5  A    between atoms: C6_10  and  C8_13 
REMARK       I    between atoms: C7_11  and  N3_14 
REMARK    6  A    between atoms: N3_14  and  C9_15 
REMARK    7  A    between atoms: C9_15  and  C10_16 
REMARK    8  A    between atoms: C9_15  and  C11_18 
REMARK       I    between atoms: C10_16  and  N4_21 
REMARK    9  A    between atoms: C11_18  and  C12_19 
REMARK   10  A    between atoms: C11_18  and  C13_20 
REMARK   11  A    between atoms: N4_21  and  C14_22 
REMARK   12  A    between atoms: C14_22  and  C15_23 
REMARK   13  A    between atoms: C14_22  and  C16_25 
REMARK       I    between atoms: C15_23  and  N6_40 
REMARK   14  A    between atoms: C16_25  and  C17_26 
REMARK   15  A    between atoms: C17_26  and  C18_27 
REMARK   16  A    between atoms: C17_26  and  C19_28 
REMARK   17  A    between atoms: C20_29  and  C21_30 
REMARK   18  A    between atoms: C20_29  and  C24_33 
REMARK   19  A    between atoms: C20_29  and  N6_40 
REMARK   20  A    between atoms: C21_30  and  C22_31 
REMARK   21  A    between atoms: C22_31  and  C23_32 
REMARK   22  A    between atoms: C23_32  and  O8_43 
REMARK   23  A    between atoms: C24_33  and  C25_34 
REMARK   24  A    between atoms: C28_38  and  O6_39 
REMARK   25  A    between atoms: C29_42  and  O8_43 
REMARK   26  A    between atoms: C29_42  and  C35_49 
ROOT
ATOM      1  C14 non d ame      -8.828  16.516  67.069  0.00  0.00     0.089 C 
ATOM      2  H20 non d ame      -9.362  16.601  68.015  0.00  0.00     0.087 H 
ENDROOT
BRANCH   1   3
ATOM      3  N4  non d ame      -7.642  15.707  67.306  0.00  0.00    -0.346 N 
ATOM      4  C10 non d ame      -7.284  15.270  68.705  0.00  0.00     0.241 C 
ATOM      5  O4  non d ame      -7.966  15.586  69.624  0.00  0.00    -0.271 OA
ATOM      6  H19 non d ame      -7.074  15.451  66.510  0.00  0.00     0.163 HD
BRANCH   4   7
ATOM      7  C9  non d ame      -6.056  14.429  68.931  0.00  0.00     0.092 C 
ATOM      8  H11 non d ame      -5.716  14.559  69.959  0.00  0.00     0.088 H 
BRANCH   7   9
ATOM      9  N3  non d ame      -6.397  13.012  68.766  0.00  0.00    -0.346 N 
ATOM     10  C7  non d ame      -6.264  12.104  69.877  0.00  0.00     0.240 C 
ATOM     11  O3  non d ame      -5.883  12.495  70.913  0.00  0.00    -0.271 OA
ATOM     12  H10 non d ame      -6.724  12.660  67.878  0.00  0.00     0.163 HD
BRANCH  10  13
ATOM     13  C6  non d ame      -6.625  10.597  69.693  0.00  0.00     0.086 C 
ATOM     14  H6  non d ame      -6.108   9.950  70.402  0.00  0.00     0.086 H 
BRANCH  13  15
ATOM     15  N2  non d ame      -8.048  10.421  69.931  0.00  0.00    -0.343 N 
ATOM     16  C5  non d ame      -8.529   9.182  70.546  0.00  0.00     0.273 C 
ATOM     17  O2  non d ame      -7.763   8.332  70.843  0.00  0.00    -0.266 OA
ATOM     18  H5  non d ame      -8.696  11.151  69.671  0.00  0.00     0.163 HD
BRANCH  16  19
ATOM     19  C4  non d ame     -10.030   8.983  70.804  0.00  0.00     0.154 A 
ATOM     20  C1  non d ame     -10.706   7.749  71.070  0.00  0.00    -0.017 A 
ATOM     21  C2  non d ame     -12.063   8.105  71.234  0.00  0.00     0.077 A 
ATOM     22  H1  non d ame     -10.277   6.749  71.135  0.00  0.00     0.091 H 
ATOM     23  O1  non d ame     -12.146   9.395  71.080  0.00  0.00    -0.218 OA
ATOM     24  N1  non d ame     -10.973   9.929  70.828  0.00  0.00    -0.123 NA
BRANCH  21  25
ATOM     25  C3  non d ame     -13.214   7.156  71.537  0.00  0.00    -0.029 C 
ATOM     26  H2  non d ame     -14.158   7.631  71.268  0.00  0.00     0.036 H 
ATOM     27  H3  non d ame     -13.091   6.240  70.960  0.00  0.00     0.036 H 
ATOM     28  H4  non d ame     -13.218   6.917  72.601  0.00  0.00     0.036 H 
ENDBRANCH  21  25
ENDBRANCH  16  19
ENDBRANCH  13  15
BRANCH  13  29
ATOM     29  C8  non d ame      -6.278  10.161  68.293  0.00  0.00    -0.049 C 
ATOM     30  H7  non d ame      -6.009   9.105  68.297  0.00  0.00     0.030 H 
ATOM     31  H8  non d ame      -7.139  10.314  67.641  0.00  0.00     0.030 H 
ATOM     32  H9  non d ame      -5.437  10.748  67.927  0.00  0.00     0.030 H 
ENDBRANCH  13  29
ENDBRANCH  10  13
ENDBRANCH   7   9
BRANCH   7  33
ATOM     33  C11 non d ame      -4.960  14.821  67.898  0.00  0.00    -0.033 C 
ATOM     34  H12 non d ame      -5.449  14.945  66.931  0.00  0.00     0.042 H 
BRANCH  33  35
ATOM     35  C12 non d ame      -4.294  16.183  68.265  0.00  0.00    -0.071 C 
ATOM     36  H13 non d ame      -4.378  16.868  67.421  0.00  0.00     0.028 H 
ATOM     37  H14 non d ame      -4.796  16.612  69.132  0.00  0.00     0.028 H 
ATOM     38  H15 non d ame      -3.242  16.021  68.499  0.00  0.00     0.028 H 
ENDBRANCH  33  35
BRANCH  33  39
ATOM     39  C13 non d ame      -3.893  13.688  67.757  0.00  0.00    -0.071 C 
ATOM     40  H16 non d ame      -3.485  13.696  66.747  0.00  0.00     0.028 H 
ATOM     41  H17 non d ame      -3.090  13.853  68.476  0.00  0.00     0.028 H 
ATOM     42  H18 non d ame      -4.362  12.723  67.952  0.00  0.00     0.028 H 
ENDBRANCH  33  39
ENDBRANCH   7  33
ENDBRANCH   4   7
ENDBRANCH   1   3
BRANCH   1  43
ATOM     43  C15 non d ame      -9.686  15.827  65.970  0.00  0.00     0.240 C 
ATOM     44  O5  non d ame     -10.103  16.466  65.058  0.00  0.00    -0.271 OA
ATOM     45  N6  non d ame      -9.981  14.368  66.048  0.00  0.00    -0.355 N 
ATOM     46  H46 non d ame      -9.629  13.813  66.815  0.00  0.00     0.162 HD
BRANCH  45  47
ATOM     47  C20 non d ame     -10.797  13.727  64.994  0.00  0.00     0.013 C 
ATOM     48  H30 non d ame     -11.148  14.509  64.320  0.00  0.00     0.072 H 
BRANCH  47  49
ATOM     49  C21 non d ame     -11.976  13.027  65.630  0.00  0.00    -0.038 C 
ATOM     50  H31 non d ame     -12.844  13.309  65.033  0.00  0.00     0.036 H 
ATOM     51  H32 non d ame     -11.687  11.979  65.711  0.00  0.00     0.036 H 
BRANCH  49  52
ATOM     52  C22 non d ame     -12.258  13.514  67.068  0.00  0.00     0.018 C 
ATOM     53  H33 non d ame     -11.566  14.339  67.242  0.00  0.00     0.048 H 
ATOM     54  H34 non d ame     -13.333  13.685  67.117  0.00  0.00     0.048 H 
BRANCH  52  55
ATOM     55  C23 non d ame     -11.942  12.454  68.160  0.00  0.00     0.259 C 
ATOM     56  O7  non d ame     -11.877  11.301  67.880  0.00  0.00    -0.265 OA
BRANCH  55  57
ATOM     57  O8  non d ame     -11.745  12.875  69.504  0.00  0.00    -0.317 OA
BRANCH  57  58
ATOM     58  C29 non d ame     -11.386  14.253  69.637  0.00  0.00     0.052 C 
ATOM     59  H47 non d ame     -10.322  14.260  69.870  0.00  0.00     0.082 H 
ATOM     60  H48 non d ame     -11.749  14.741  68.732  0.00  0.00     0.082 H 
BRANCH  58  61
ATOM     61  C35 non d ame     -12.159  14.834  70.851  0.00  0.00    -0.034 A 
ATOM     62  C30 non d ame     -13.523  14.599  70.986  0.00  0.00    -0.075 A 
ATOM     63  C31 non d ame     -14.217  15.121  72.076  0.00  0.00    -0.082 A 
ATOM     64  H49 non d ame     -14.048  14.006  70.238  0.00  0.00     0.084 H 
ATOM     65  C32 non d ame     -13.542  15.883  73.034  0.00  0.00    -0.083 A 
ATOM     66  H50 non d ame     -15.285  14.933  72.180  0.00  0.00     0.083 H 
ATOM     67  C33 non d ame     -12.180  16.118  72.894  0.00  0.00    -0.082 A 
ATOM     68  H51 non d ame     -14.076  16.295  73.889  0.00  0.00     0.083 H 
ATOM     69  C34 non d ame     -11.483  15.596  71.806  0.00  0.00    -0.075 A 
ATOM     70  H52 non d ame     -11.657  16.715  73.641  0.00  0.00     0.083 H 
ATOM     71  H53 non d ame     -10.413  15.785  71.704  0.00  0.00     0.084 H 
ENDBRANCH  58  61
ENDBRANCH  57  58
ENDBRANCH  55  57
ENDBRANCH  52  55
ENDBRANCH  49  52
ENDBRANCH  47  49
BRANCH  47  72
ATOM     72  C24 non d ame      -9.950  12.710  64.232  0.00  0.00    -0.039 C 
ATOM     73  H35 non d ame     -10.436  12.595  63.263  0.00  0.00     0.036 H 
ATOM     74  H36 non d ame      -8.928  13.084  64.287  0.00  0.00     0.036 H 
BRANCH  72  75
ATOM     75  C25 non d ame      -9.967  11.274  64.943  0.00  0.00    -0.001 C 
ATOM     76  C26 non d ame      -8.467  10.912  65.510  0.00  0.00    -0.035 C 
ATOM     77  C27 non d ame      -8.117   9.682  65.065  0.00  0.00     0.085 C 
ATOM     78  H38 non d ame      -7.726  11.568  65.053  0.00  0.00     0.036 H 
ATOM     79  H39 non d ame      -8.495  10.793  66.594  0.00  0.00     0.036 H 
ATOM     80  N5  non d ame      -9.099   9.308  63.982  0.00  0.00    -0.049 N 
ATOM     81  H40 non d ame      -7.128   9.802  64.622  0.00  0.00     0.075 H 
ATOM     82  H41 non d ame      -8.256   9.015  65.916  0.00  0.00     0.075 H 
ATOM     83  C28 non d ame     -10.327  10.349  64.117  0.00  0.00     0.193 C 
ATOM     84  H42 non d ame      -8.632   9.474  63.102  0.00  0.00     0.280 HD
ATOM     85  H43 non d ame      -9.436   8.383  64.207  0.00  0.00     0.280 HD
ATOM     86  H44 non d ame     -11.270  10.037  64.566  0.00  0.00     0.129 H 
ATOM     87  H37 non d ame     -10.799  11.168  65.638  0.00  0.00     0.046 H 
BRANCH  83  88
ATOM     88  O6  non d ame     -10.670  10.874  62.834  0.00  0.00    -0.369 OA
ATOM     89  H45 non d ame     -10.936  11.791  62.924  0.00  0.00     0.212 HD
ENDBRANCH  83  88
ENDBRANCH  72  75
ENDBRANCH  47  72
ENDBRANCH  45  47
ENDBRANCH   1  43
BRANCH   1  90
ATOM     90  C16 non d ame      -8.401  17.896  66.594  0.00  0.00    -0.035 C 
ATOM     91  H21 non d ame      -7.351  17.985  66.873  0.00  0.00     0.037 H 
ATOM     92  H22 non d ame      -8.691  17.942  65.545  0.00  0.00     0.037 H 
BRANCH  90  93
ATOM     93  C17 non d ame      -9.148  19.064  67.311  0.00  0.00    -0.059 C 
ATOM     94  H23 non d ame      -8.408  19.824  67.564  0.00  0.00     0.038 H 
BRANCH  93  95
ATOM     95  C18 non d ame     -10.221  19.731  66.393  0.00  0.00    -0.073 C 
ATOM     96  H24 non d ame     -10.574  19.004  65.660  0.00  0.00     0.028 H 
ATOM     97  H25 non d ame     -11.060  20.069  67.001  0.00  0.00     0.028 H 
ATOM     98  H26 non d ame      -9.780  20.583  65.877  0.00  0.00     0.028 H 
ENDBRANCH  93  95
BRANCH  93  99
ATOM     99  C19 non d ame      -9.775  18.587  68.624  0.00  0.00    -0.073 C 
ATOM    100  H27 non d ame     -10.745  19.065  68.758  0.00  0.00     0.028 H 
ATOM    101  H28 non d ame      -9.903  17.505  68.594  0.00  0.00     0.028 H 
ATOM    102  H29 non d ame      -9.122  18.852  69.455  0.00  0.00     0.028 H 
ENDBRANCH  93  99
ENDBRANCH  90  93
ENDBRANCH   1  90
TORSDOF 26
ENDMDL
MODEL 8
REMARK VINA RESULT:      -6.5      3.169      7.620
REMARK  26 active torsions:
REMARK  status: ('A' for Active; 'I' for Inactive)
REMARK    1  A    between atoms: C2_2  and  C3_3 
REMARK    2  A    between atoms: C4_6  and  C5_7 
REMARK       I    between atoms: C5_7  and  N2_9 
REMARK    3  A    between atoms: N2_9  and  C6_10 
REMARK    4  A    between atoms: C6_10  and  C7_11 
REMARK    5  A    between atoms: C6_10  and  C8_13 
REMARK       I    between atoms: C7_11  and  N3_14 
REMARK    6  A    between atoms: N3_14  and  C9_15 
REMARK    7  A    between atoms: C9_15  and  C10_16 
REMARK    8  A    between atoms: C9_15  and  C11_18 
REMARK       I    between atoms: C10_16  and  N4_21 
REMARK    9  A    between atoms: C11_18  and  C12_19 
REMARK   10  A    between atoms: C11_18  and  C13_20 
REMARK   11  A    between atoms: N4_21  and  C14_22 
REMARK   12  A    between atoms: C14_22  and  C15_23 
REMARK   13  A    between atoms: C14_22  and  C16_25 
REMARK       I    between atoms: C15_23  and  N6_40 
REMARK   14  A    between atoms: C16_25  and  C17_26 
REMARK   15  A    between atoms: C17_26  and  C18_27 
REMARK   16  A    between atoms: C17_26  and  C19_28 
REMARK   17  A    between atoms: C20_29  and  C21_30 
REMARK   18  A    between atoms: C20_29  and  C24_33 
REMARK   19  A    between atoms: C20_29  and  N6_40 
REMARK   20  A    between atoms: C21_30  and  C22_31 
REMARK   21  A    between atoms: C22_31  and  C23_32 
REMARK   22  A    between atoms: C23_32  and  O8_43 
REMARK   23  A    between atoms: C24_33  and  C25_34 
REMARK   24  A    between atoms: C28_38  and  O6_39 
REMARK   25  A    between atoms: C29_42  and  O8_43 
REMARK   26  A    between atoms: C29_42  and  C35_49 
ROOT
ATOM      1  C14 non d ame      -6.677  15.567  67.967  0.00  0.00     0.089 C 
ATOM      2  H20 non d ame      -5.963  16.012  67.273  0.00  0.00     0.087 H 
ENDROOT
BRANCH   1   3
ATOM      3  N4  non d ame      -8.009  15.773  67.418  0.00  0.00    -0.346 N 
ATOM      4  C10 non d ame      -8.341  17.046  66.681  0.00  0.00     0.241 C 
ATOM      5  O4  non d ame      -7.520  17.892  66.545  0.00  0.00    -0.271 OA
ATOM      6  H19 non d ame      -8.694  15.041  67.547  0.00  0.00     0.163 HD
BRANCH   4   7
ATOM      7  C9  non d ame      -9.723  17.239  66.115  0.00  0.00     0.092 C 
ATOM      8  H11 non d ame      -9.648  17.745  65.152  0.00  0.00     0.088 H 
BRANCH   7   9
ATOM      9  N3  non d ame     -10.338  15.932  65.869  0.00  0.00    -0.346 N 
ATOM     10  C7  non d ame     -11.219  15.749  64.742  0.00  0.00     0.240 C 
ATOM     11  O3  non d ame     -11.445  16.645  64.023  0.00  0.00    -0.271 OA
ATOM     12  H10 non d ame     -10.154  15.150  66.482  0.00  0.00     0.163 HD
BRANCH  10  13
ATOM     13  C6  non d ame     -11.873  14.356  64.488  0.00  0.00     0.086 C 
ATOM     14  H6  non d ame     -12.459  14.326  63.569  0.00  0.00     0.086 H 
BRANCH  13  15
ATOM     15  N2  non d ame     -10.823  13.362  64.344  0.00  0.00    -0.343 N 
ATOM     16  C5  non d ame     -11.099  12.122  63.614  0.00  0.00     0.273 C 
ATOM     17  O2  non d ame     -12.169  11.934  63.149  0.00  0.00    -0.266 OA
ATOM     18  H5  non d ame      -9.912  13.529  64.745  0.00  0.00     0.163 HD
BRANCH  16  19
ATOM     19  C4  non d ame      -9.998  11.063  63.451  0.00  0.00     0.154 A 
ATOM     20  C1  non d ame      -8.903  11.088  62.530  0.00  0.00    -0.017 A 
ATOM     21  C2  non d ame      -8.189   9.895  62.780  0.00  0.00     0.077 A 
ATOM     22  H1  non d ame      -8.664  11.854  61.791  0.00  0.00     0.091 H 
ATOM     23  O1  non d ame      -8.808   9.267  63.737  0.00  0.00    -0.218 OA
ATOM     24  N1  non d ame      -9.867   9.928  64.144  0.00  0.00    -0.123 NA
BRANCH  21  25
ATOM     25  C3  non d ame      -6.927   9.433  62.065  0.00  0.00    -0.029 C 
ATOM     26  H2  non d ame      -7.135   8.515  61.515  0.00  0.00     0.036 H 
ATOM     27  H3  non d ame      -6.599  10.207  61.370  0.00  0.00     0.036 H 
ATOM     28  H4  non d ame      -6.140   9.247  62.797  0.00  0.00     0.036 H 
ENDBRANCH  21  25
ENDBRANCH  16  19
ENDBRANCH  13  15
BRANCH  13  29
ATOM     29  C8  non d ame     -12.767  13.998  65.648  0.00  0.00    -0.049 C 
ATOM     30  H7  non d ame     -13.508  13.267  65.324  0.00  0.00     0.030 H 
ATOM     31  H8  non d ame     -12.164  13.572  66.452  0.00  0.00     0.030 H 
ATOM     32  H9  non d ame     -13.273  14.893  66.007  0.00  0.00     0.030 H 
ENDBRANCH  13  29
ENDBRANCH  10  13
ENDBRANCH   7   9
BRANCH   7  33
ATOM     33  C11 non d ame     -10.593  18.037  67.130  0.00  0.00    -0.033 C 
ATOM     34  H12 non d ame     -11.622  17.697  67.018  0.00  0.00     0.042 H 
BRANCH  33  35
ATOM     35  C12 non d ame     -10.159  17.748  68.601  0.00  0.00    -0.071 C 
ATOM     36  H13 non d ame      -9.416  18.482  68.911  0.00  0.00     0.028 H 
ATOM     37  H14 non d ame     -11.029  17.812  69.255  0.00  0.00     0.028 H 
ATOM     38  H15 non d ame      -9.732  16.748  68.662  0.00  0.00     0.028 H 
ENDBRANCH  33  35
BRANCH  33  39
ATOM     39  C13 non d ame     -10.553  19.568  66.818  0.00  0.00    -0.071 C 
ATOM     40  H16 non d ame      -9.735  19.777  66.129  0.00  0.00     0.028 H 
ATOM     41  H17 non d ame     -11.497  19.871  66.365  0.00  0.00     0.028 H 
ATOM     42  H18 non d ame     -10.399  20.122  67.744  0.00  0.00     0.028 H 
ENDBRANCH  33  39
ENDBRANCH   7  33
ENDBRANCH   4   7
ENDBRANCH   1   3
BRANCH   1  43
ATOM     43  C15 non d ame      -6.446  14.040  68.149  0.00  0.00     0.240 C 
ATOM     44  O5  non d ame      -6.163  13.608  69.220  0.00  0.00    -0.271 OA
ATOM     45  N6  non d ame      -6.586  13.113  66.990  0.00  0.00    -0.355 N 
ATOM     46  H46 non d ame      -6.830  13.467  66.076  0.00  0.00     0.162 HD
BRANCH  45  47
ATOM     47  C20 non d ame      -6.365  11.663  67.180  0.00  0.00     0.013 C 
ATOM     48  H30 non d ame      -6.309  11.470  68.251  0.00  0.00     0.072 H 
BRANCH  47  49
ATOM     49  C21 non d ame      -5.067  11.264  66.515  0.00  0.00    -0.038 C 
ATOM     50  H31 non d ame      -4.676  12.175  66.061  0.00  0.00     0.036 H 
ATOM     51  H32 non d ame      -4.491  10.746  67.283  0.00  0.00     0.036 H 
BRANCH  49  52
ATOM     52  C22 non d ame      -5.268  10.253  65.365  0.00  0.00     0.018 C 
ATOM     53  H33 non d ame      -6.262   9.830  65.514  0.00  0.00     0.048 H 
ATOM     54  H34 non d ame      -5.040  10.799  64.449  0.00  0.00     0.048 H 
BRANCH  52  55
ATOM     55  C23 non d ame      -4.282   9.053  65.408  0.00  0.00     0.259 C 
ATOM     56  O7  non d ame      -3.408   9.019  66.212  0.00  0.00    -0.265 OA
BRANCH  55  57
ATOM     57  O8  non d ame      -4.426   7.999  64.464  0.00  0.00    -0.317 OA
BRANCH  57  58
ATOM     58  C29 non d ame      -4.665   6.717  65.053  0.00  0.00     0.052 C 
ATOM     59  H47 non d ame      -3.901   6.057  64.645  0.00  0.00     0.082 H 
ATOM     60  H48 non d ame      -4.715   6.892  66.128  0.00  0.00     0.082 H 
BRANCH  58  61
ATOM     61  C35 non d ame      -6.053   6.220  64.571  0.00  0.00    -0.034 A 
ATOM     62  C30 non d ame      -7.040   5.901  65.499  0.00  0.00    -0.075 A 
ATOM     63  C31 non d ame      -8.287   5.455  65.066  0.00  0.00    -0.082 A 
ATOM     64  H49 non d ame      -6.836   6.002  66.564  0.00  0.00     0.084 H 
ATOM     65  C32 non d ame      -8.546   5.325  63.699  0.00  0.00    -0.083 A 
ATOM     66  H50 non d ame      -9.058   5.208  65.795  0.00  0.00     0.083 H 
ATOM     67  C33 non d ame      -7.557   5.640  62.776  0.00  0.00    -0.082 A 
ATOM     68  H51 non d ame      -9.518   4.976  63.351  0.00  0.00     0.083 H 
ATOM     69  C34 non d ame      -6.310   6.090  63.205  0.00  0.00    -0.075 A 
ATOM     70  H52 non d ame      -7.761   5.535  61.710  0.00  0.00     0.083 H 
ATOM     71  H53 non d ame      -5.539   6.337  62.474  0.00  0.00     0.084 H 
ENDBRANCH  58  61
ENDBRANCH  57  58
ENDBRANCH  55  57
ENDBRANCH  52  55
ENDBRANCH  49  52
ENDBRANCH  47  49
BRANCH  47  72
ATOM     72  C24 non d ame      -7.519  10.879  66.558  0.00  0.00    -0.039 C 
ATOM     73  H35 non d ame      -8.073  11.603  65.961  0.00  0.00     0.036 H 
ATOM     74  H36 non d ame      -7.058  10.016  66.078  0.00  0.00     0.036 H 
BRANCH  72  75
ATOM     75  C25 non d ame      -8.523  10.319  67.674  0.00  0.00    -0.001 C 
ATOM     76  C26 non d ame      -8.849   8.733  67.389  0.00  0.00    -0.035 C 
ATOM     77  C27 non d ame     -10.192   8.556  67.386  0.00  0.00     0.085 C 
ATOM     78  H38 non d ame      -8.556   8.468  66.373  0.00  0.00     0.036 H 
ATOM     79  H39 non d ame      -8.513   8.124  68.229  0.00  0.00     0.036 H 
ATOM     80  N5  non d ame     -10.817   9.929  67.319  0.00  0.00    -0.049 N 
ATOM     81  H40 non d ame     -10.414   8.019  66.464  0.00  0.00     0.075 H 
ATOM     82  H41 non d ame     -10.428   8.107  68.351  0.00  0.00     0.075 H 
ATOM     83  C28 non d ame      -9.637  10.973  67.671  0.00  0.00     0.193 C 
ATOM     84  H42 non d ame     -11.095  10.070  66.358  0.00  0.00     0.280 HD
ATOM     85  H43 non d ame     -11.508   9.965  68.054  0.00  0.00     0.280 HD
ATOM     86  H44 non d ame      -9.591  11.447  68.652  0.00  0.00     0.129 H 
ATOM     87  H37 non d ame      -8.210  10.587  68.683  0.00  0.00     0.046 H 
BRANCH  83  88
ATOM     88  O6  non d ame      -9.630  12.045  66.727  0.00  0.00    -0.369 OA
ATOM     89  H45 non d ame     -10.113  12.791  67.088  0.00  0.00     0.212 HD
ENDBRANCH  83  88
ENDBRANCH  72  75
ENDBRANCH  47  72
ENDBRANCH  45  47
ENDBRANCH   1  43
BRANCH   1  90
ATOM     90  C16 non d ame      -6.583  16.262  69.317  0.00  0.00    -0.035 C 
ATOM     91  H21 non d ame      -7.573  16.683  69.493  0.00  0.00     0.037 H 
ATOM     92  H22 non d ame      -6.180  15.515  69.999  0.00  0.00     0.037 H 
BRANCH  90  93
ATOM     93  C17 non d ame      -5.584  17.462  69.335  0.00  0.00    -0.059 C 
ATOM     94  H23 non d ame      -6.068  18.303  68.837  0.00  0.00     0.038 H 
BRANCH  93  95
ATOM     95  C18 non d ame      -5.226  17.910  70.788  0.00  0.00    -0.073 C 
ATOM     96  H24 non d ame      -6.141  18.158  71.327  0.00  0.00     0.028 H 
ATOM     97  H25 non d ame      -4.711  17.099  71.302  0.00  0.00     0.028 H 
ATOM     98  H26 non d ame      -4.578  18.786  70.749  0.00  0.00     0.028 H 
ENDBRANCH  93  95
BRANCH  93  99
ATOM     99  C19 non d ame      -4.319  17.132  68.539  0.00  0.00    -0.073 C 
ATOM    100  H27 non d ame      -3.527  17.830  68.810  0.00  0.00     0.028 H 
ATOM    101  H28 non d ame      -4.000  16.115  68.769  0.00  0.00     0.028 H 
ATOM    102  H29 non d ame      -4.528  17.215  67.473  0.00  0.00     0.028 H 
ENDBRANCH  93  99
ENDBRANCH  90  93
ENDBRANCH   1  90
TORSDOF 26
ENDMDL
MODEL 9
REMARK VINA RESULT:      -6.4      3.257      7.405
REMARK  26 active torsions:
REMARK  status: ('A' for Active; 'I' for Inactive)
REMARK    1  A    between atoms: C2_2  and  C3_3 
REMARK    2  A    between atoms: C4_6  and  C5_7 
REMARK       I    between atoms: C5_7  and  N2_9 
REMARK    3  A    between atoms: N2_9  and  C6_10 
REMARK    4  A    between atoms: C6_10  and  C7_11 
REMARK    5  A    between atoms: C6_10  and  C8_13 
REMARK       I    between atoms: C7_11  and  N3_14 
REMARK    6  A    between atoms: N3_14  and  C9_15 
REMARK    7  A    between atoms: C9_15  and  C10_16 
REMARK    8  A    between atoms: C9_15  and  C11_18 
REMARK       I    between atoms: C10_16  and  N4_21 
REMARK    9  A    between atoms: C11_18  and  C12_19 
REMARK   10  A    between atoms: C11_18  and  C13_20 
REMARK   11  A    between atoms: N4_21  and  C14_22 
REMARK   12  A    between atoms: C14_22  and  C15_23 
REMARK   13  A    between atoms: C14_22  and  C16_25 
REMARK       I    between atoms: C15_23  and  N6_40 
REMARK   14  A    between atoms: C16_25  and  C17_26 
REMARK   15  A    between atoms: C17_26  and  C18_27 
REMARK   16  A    between atoms: C17_26  and  C19_28 
REMARK   17  A    between atoms: C20_29  and  C21_30 
REMARK   18  A    between atoms: C20_29  and  C24_33 
REMARK   19  A    between atoms: C20_29  and  N6_40 
REMARK   20  A    between atoms: C21_30  and  C22_31 
REMARK   21  A    between atoms: C22_31  and  C23_32 
REMARK   22  A    between atoms: C23_32  and  O8_43 
REMARK   23  A    between atoms: C24_33  and  C25_34 
REMARK   24  A    between atoms: C28_38  and  O6_39 
REMARK   25  A    between atoms: C29_42  and  O8_43 
REMARK   26  A    between atoms: C29_42  and  C35_49 
ROOT
ATOM      1  C14 non d ame      -9.889  10.673  68.330  0.00  0.00     0.089 C 
ATOM      2  H20 non d ame      -9.177  10.697  69.155  0.00  0.00     0.087 H 
ENDROOT
BRANCH   1   3
ATOM      3  N4  non d ame     -10.512   9.359  68.326  0.00  0.00    -0.346 N 
ATOM      4  C10 non d ame     -10.057   8.297  69.295  0.00  0.00     0.241 C 
ATOM      5  O4  non d ame      -9.184   8.524  70.068  0.00  0.00    -0.271 OA
ATOM      6  H19 non d ame     -11.251   9.185  67.659  0.00  0.00     0.163 HD
BRANCH   4   7
ATOM      7  C9  non d ame     -10.717   6.943  69.282  0.00  0.00     0.092 C 
ATOM      8  H11 non d ame     -11.717   7.036  68.859  0.00  0.00     0.088 H 
BRANCH   7   9
ATOM      9  N3  non d ame      -9.961   6.040  68.409  0.00  0.00    -0.346 N 
ATOM     10  C7  non d ame     -10.331   5.898  67.023  0.00  0.00     0.240 C 
ATOM     11  O3  non d ame     -11.236   6.503  66.592  0.00  0.00    -0.271 OA
ATOM     12  H10 non d ame      -9.179   5.510  68.767  0.00  0.00     0.163 HD
BRANCH  10  13
ATOM     13  C6  non d ame      -9.524   4.932  66.101  0.00  0.00     0.086 C 
ATOM     14  H6  non d ame     -10.084   4.627  65.216  0.00  0.00     0.086 H 
BRANCH  13  15
ATOM     15  N2  non d ame      -8.336   5.619  65.624  0.00  0.00    -0.343 N 
ATOM     16  C5  non d ame      -8.019   5.604  64.193  0.00  0.00     0.273 C 
ATOM     17  O2  non d ame      -8.726   5.035  63.436  0.00  0.00    -0.266 OA
ATOM     18  H5  non d ame      -7.736   6.101  66.277  0.00  0.00     0.163 HD
BRANCH  16  19
ATOM     19  C4  non d ame      -6.767   6.328  63.674  0.00  0.00     0.154 A 
ATOM     20  C1  non d ame      -6.537   7.740  63.639  0.00  0.00    -0.017 A 
ATOM     21  C2  non d ame      -5.249   7.886  63.077  0.00  0.00     0.077 A 
ATOM     22  H1  non d ame      -7.203   8.538  63.970  0.00  0.00     0.091 H 
ATOM     23  O1  non d ame      -4.799   6.690  62.825  0.00  0.00    -0.218 OA
ATOM     24  N1  non d ame      -5.668   5.765  63.164  0.00  0.00    -0.123 NA
BRANCH  21  25
ATOM     25  C3  non d ame      -4.521   9.197  62.818  0.00  0.00    -0.029 C 
ATOM     26  H2  non d ame      -3.740   9.039  62.073  0.00  0.00     0.036 H 
ATOM     27  H3  non d ame      -5.230   9.939  62.449  0.00  0.00     0.036 H 
ATOM     28  H4  non d ame      -4.072   9.554  63.745  0.00  0.00     0.036 H 
ENDBRANCH  21  25
ENDBRANCH  16  19
ENDBRANCH  13  15
BRANCH  13  29
ATOM     29  C8  non d ame      -9.132   3.701  66.877  0.00  0.00    -0.049 C 
ATOM     30  H7  non d ame      -9.236   3.896  67.945  0.00  0.00     0.030 H 
ATOM     31  H8  non d ame      -9.781   2.871  66.594  0.00  0.00     0.030 H 
ATOM     32  H9  non d ame      -8.097   3.446  66.654  0.00  0.00     0.030 H 
ENDBRANCH  13  29
ENDBRANCH  10  13
ENDBRANCH   7   9
BRANCH   7  33
ATOM     33  C11 non d ame     -10.743   6.364  70.726  0.00  0.00    -0.033 C 
ATOM     34  H12 non d ame      -9.982   6.889  71.305  0.00  0.00     0.042 H 
BRANCH  33  35
ATOM     35  C12 non d ame     -12.119   6.623  71.417  0.00  0.00    -0.071 C 
ATOM     36  H13 non d ame     -12.151   7.646  71.790  0.00  0.00     0.028 H 
ATOM     37  H14 non d ame     -12.922   6.474  70.695  0.00  0.00     0.028 H 
ATOM     38  H15 non d ame     -12.244   5.928  72.247  0.00  0.00     0.028 H 
ENDBRANCH  33  35
BRANCH  33  39
ATOM     39  C13 non d ame     -10.387   4.843  70.725  0.00  0.00    -0.071 C 
ATOM     40  H16 non d ame      -9.653   4.641  71.504  0.00  0.00     0.028 H 
ATOM     41  H17 non d ame     -11.288   4.258  70.913  0.00  0.00     0.028 H 
ATOM     42  H18 non d ame      -9.972   4.569  69.755  0.00  0.00     0.028 H 
ENDBRANCH  33  39
ENDBRANCH   7  33
ENDBRANCH   4   7
ENDBRANCH   1   3
BRANCH   1  43
ATOM     43  C15 non d ame     -11.002  11.749  68.483  0.00  0.00     0.240 C 
ATOM     44  O5  non d ame     -12.089  11.541  68.046  0.00  0.00    -0.271 OA
ATOM     45  N6  non d ame     -10.717  13.034  69.182  0.00  0.00    -0.355 N 
ATOM     46  H46 non d ame      -9.800  13.220  69.560  0.00  0.00     0.162 HD
BRANCH  45  47
ATOM     47  C20 non d ame     -11.787  14.046  69.320  0.00  0.00     0.013 C 
ATOM     48  H30 non d ame     -12.543  13.840  68.563  0.00  0.00     0.072 H 
BRANCH  47  49
ATOM     49  C21 non d ame     -11.203  15.424  69.104  0.00  0.00    -0.038 C 
ATOM     50  H31 non d ame     -11.994  16.125  69.375  0.00  0.00     0.036 H 
ATOM     51  H32 non d ame     -10.258  15.431  69.647  0.00  0.00     0.036 H 
BRANCH  49  52
ATOM     52  C22 non d ame     -10.859  15.704  67.626  0.00  0.00     0.018 C 
ATOM     53  H33 non d ame      -9.986  15.089  67.404  0.00  0.00     0.048 H 
ATOM     54  H34 non d ame     -11.786  15.554  67.072  0.00  0.00     0.048 H 
BRANCH  52  55
ATOM     55  C23 non d ame     -10.428  17.172  67.351  0.00  0.00     0.259 C 
ATOM     56  O7  non d ame     -10.836  18.056  68.031  0.00  0.00    -0.265 OA
BRANCH  55  57
ATOM     57  O8  non d ame      -9.552  17.450  66.266  0.00  0.00    -0.317 OA
BRANCH  57  58
ATOM     58  C29 non d ame      -8.172  17.203  66.553  0.00  0.00     0.052 C 
ATOM     59  H47 non d ame      -8.151  16.764  67.550  0.00  0.00     0.082 H 
ATOM     60  H48 non d ame      -7.791  16.639  65.702  0.00  0.00     0.082 H 
BRANCH  58  61
ATOM     61  C35 non d ame      -7.441  18.571  66.602  0.00  0.00    -0.034 A 
ATOM     62  C30 non d ame      -6.696  19.002  65.509  0.00  0.00    -0.075 A 
ATOM     63  C31 non d ame      -6.039  20.230  65.553  0.00  0.00    -0.082 A 
ATOM     64  H49 non d ame      -6.628  18.378  64.619  0.00  0.00     0.084 H 
ATOM     65  C32 non d ame      -6.126  21.028  66.697  0.00  0.00    -0.083 A 
ATOM     66  H50 non d ame      -5.458  20.566  64.695  0.00  0.00     0.083 H 
ATOM     67  C33 non d ame      -6.868  20.592  67.788  0.00  0.00    -0.082 A 
ATOM     68  H51 non d ame      -5.616  21.990  66.741  0.00  0.00     0.083 H 
ATOM     69  C34 non d ame      -7.528  19.366  67.746  0.00  0.00    -0.075 A 
ATOM     70  H52 non d ame      -6.932  21.215  68.680  0.00  0.00     0.083 H 
ATOM     71  H53 non d ame      -8.110  19.030  68.607  0.00  0.00     0.084 H 
ENDBRANCH  58  61
ENDBRANCH  57  58
ENDBRANCH  55  57
ENDBRANCH  52  55
ENDBRANCH  49  52
ENDBRANCH  47  49
BRANCH  47  72
ATOM     72  C24 non d ame     -12.398  13.964  70.717  0.00  0.00    -0.039 C 
ATOM     73  H35 non d ame     -13.409  13.585  70.570  0.00  0.00     0.036 H 
ATOM     74  H36 non d ame     -11.684  13.394  71.313  0.00  0.00     0.036 H 
BRANCH  72  75
ATOM     75  C25 non d ame     -12.529  15.411  71.393  0.00  0.00    -0.001 C 
ATOM     76  C26 non d ame     -11.658  15.460  72.786  0.00  0.00    -0.035 C 
ATOM     77  C27 non d ame     -12.452  15.922  73.781  0.00  0.00     0.085 C 
ATOM     78  H38 non d ame     -11.410  14.448  73.107  0.00  0.00     0.036 H 
ATOM     79  H39 non d ame     -10.875  16.216  72.712  0.00  0.00     0.036 H 
ATOM     80  N5  non d ame     -13.871  15.883  73.268  0.00  0.00    -0.049 N 
ATOM     81  H40 non d ame     -12.348  15.203  74.595  0.00  0.00     0.075 H 
ATOM     82  H41 non d ame     -12.157  16.960  73.930  0.00  0.00     0.075 H 
ATOM     83  C28 non d ame     -13.760  15.687  71.669  0.00  0.00     0.193 C 
ATOM     84  H42 non d ame     -14.296  15.057  73.664  0.00  0.00     0.280 HD
ATOM     85  H43 non d ame     -14.268  16.793  73.454  0.00  0.00     0.280 HD
ATOM     86  H44 non d ame     -13.931  16.527  70.995  0.00  0.00     0.129 H 
ATOM     87  H37 non d ame     -12.366  16.216  70.677  0.00  0.00     0.046 H 
BRANCH  83  88
ATOM     88  O6  non d ame     -14.654  14.661  71.236  0.00  0.00    -0.369 OA
ATOM     89  H45 non d ame     -15.328  14.521  71.904  0.00  0.00     0.212 HD
ENDBRANCH  83  88
ENDBRANCH  72  75
ENDBRANCH  47  72
ENDBRANCH  45  47
ENDBRANCH   1  43
BRANCH   1  90
ATOM     90  C16 non d ame      -9.156  10.880  67.012  0.00  0.00    -0.035 C 
ATOM     91  H21 non d ame      -8.849  11.926  67.014  0.00  0.00     0.037 H 
ATOM     92  H22 non d ame      -8.405  10.092  66.974  0.00  0.00     0.037 H 
BRANCH  90  93
ATOM     93  C17 non d ame     -10.063  10.689  65.756  0.00  0.00    -0.059 C 
ATOM     94  H23 non d ame     -11.057  10.408  66.105  0.00  0.00     0.038 H 
BRANCH  93  95
ATOM     95  C18 non d ame     -10.203  12.003  64.924  0.00  0.00    -0.073 C 
ATOM     96  H24 non d ame     -10.486  12.823  65.585  0.00  0.00     0.028 H 
ATOM     97  H25 non d ame      -9.251  12.235  64.447  0.00  0.00     0.028 H 
ATOM     98  H26 non d ame     -10.969  11.871  64.160  0.00  0.00     0.028 H 
ENDBRANCH  93  95
BRANCH  93  99
ATOM     99  C19 non d ame      -9.549   9.542  64.881  0.00  0.00    -0.073 C 
ATOM    100  H27 non d ame      -9.869   8.591  65.305  0.00  0.00     0.028 H 
ATOM    101  H28 non d ame      -9.953   9.645  63.873  0.00  0.00     0.028 H 
ATOM    102  H29 non d ame      -8.461   9.575  64.842  0.00  0.00     0.028 H 
ENDBRANCH  93  99
ENDBRANCH  90  93
ENDBRANCH   1  90
TORSDOF 26
ENDMDL
MODEL 10
REMARK VINA RESULT:      -6.3      3.087      8.492
REMARK  26 active torsions:
REMARK  status: ('A' for Active; 'I' for Inactive)
REMARK    1  A    between atoms: C2_2  and  C3_3 
REMARK    2  A    between atoms: C4_6  and  C5_7 
REMARK       I    between atoms: C5_7  and  N2_9 
REMARK    3  A    between atoms: N2_9  and  C6_10 
REMARK    4  A    between atoms: C6_10  and  C7_11 
REMARK    5  A    between atoms: C6_10  and  C8_13 
REMARK       I    between atoms: C7_11  and  N3_14 
REMARK    6  A    between atoms: N3_14  and  C9_15 
REMARK    7  A    between atoms: C9_15  and  C10_16 
REMARK    8  A    between atoms: C9_15  and  C11_18 
REMARK       I    between atoms: C10_16  and  N4_21 
REMARK    9  A    between atoms: C11_18  and  C12_19 
REMARK   10  A    between atoms: C11_18  and  C13_20 
REMARK   11  A    between atoms: N4_21  and  C14_22 
REMARK   12  A    between atoms: C14_22  and  C15_23 
REMARK   13  A    between atoms: C14_22  and  C16_25 
REMARK       I    between atoms: C15_23  and  N6_40 
REMARK   14  A    between atoms: C16_25  and  C17_26 
REMARK   15  A    between atoms: C17_26  and  C18_27 
REMARK   16  A    between atoms: C17_26  and  C19_28 
REMARK   17  A    between atoms: C20_29  and  C21_30 
REMARK   18  A    between atoms: C20_29  and  C24_33 
REMARK   19  A    between atoms: C20_29  and  N6_40 
REMARK   20  A    between atoms: C21_30  and  C22_31 
REMARK   21  A    between atoms: C22_31  and  C23_32 
REMARK   22  A    between atoms: C23_32  and  O8_43 
REMARK   23  A    between atoms: C24_33  and  C25_34 
REMARK   24  A    between atoms: C28_38  and  O6_39 
REMARK   25  A    between atoms: C29_42  and  O8_43 
REMARK   26  A    between atoms: C29_42  and  C35_49 
ROOT
ATOM      1  C14 non d ame      -8.088   9.103  64.322  0.00  0.00     0.089 C 
ATOM      2  H20 non d ame      -7.162   9.677  64.321  0.00  0.00     0.087 H 
ENDROOT
BRANCH   1   3
ATOM      3  N4  non d ame      -7.898   7.965  65.209  0.00  0.00    -0.346 N 
ATOM      4  C10 non d ame      -6.588   7.773  65.932  0.00  0.00     0.241 C 
ATOM      5  O4  non d ame      -5.701   8.548  65.782  0.00  0.00    -0.271 OA
ATOM      6  H19 non d ame      -8.665   7.316  65.320  0.00  0.00     0.163 HD
BRANCH   4   7
ATOM      7  C9  non d ame      -6.410   6.593  66.850  0.00  0.00     0.092 C 
ATOM      8  H11 non d ame      -6.081   6.945  67.827  0.00  0.00     0.088 H 
BRANCH   7   9
ATOM      9  N3  non d ame      -7.701   5.925  67.043  0.00  0.00    -0.346 N 
ATOM     10  C7  non d ame      -8.320   5.914  68.345  0.00  0.00     0.240 C 
ATOM     11  O3  non d ame      -7.792   6.438  69.250  0.00  0.00    -0.271 OA
ATOM     12  H10 non d ame      -8.167   5.468  66.273  0.00  0.00     0.163 HD
BRANCH  10  13
ATOM     13  C6  non d ame      -9.692   5.199  68.545  0.00  0.00     0.086 C 
ATOM     14  H6  non d ame      -9.651   4.411  69.298  0.00  0.00     0.086 H 
BRANCH  13  15
ATOM     15  N2  non d ame     -10.666   6.171  69.013  0.00  0.00    -0.343 N 
ATOM     16  C5  non d ame     -10.857   6.365  70.452  0.00  0.00     0.273 C 
ATOM     17  O2  non d ame     -10.224   5.733  71.225  0.00  0.00    -0.266 OA
ATOM     18  H5  non d ame     -11.204   6.705  68.347  0.00  0.00     0.163 HD
BRANCH  16  19
ATOM     19  C4  non d ame     -11.882   7.390  70.961  0.00  0.00     0.154 A 
ATOM     20  C1  non d ame     -11.726   8.812  71.022  0.00  0.00    -0.017 A 
ATOM     21  C2  non d ame     -12.942   9.289  71.561  0.00  0.00     0.077 A 
ATOM     22  H1  non d ame     -10.863   9.406  70.721  0.00  0.00     0.091 H 
ATOM     23  O1  non d ame     -13.701   8.254  71.779  0.00  0.00    -0.218 OA
ATOM     24  N1  non d ame     -13.104   7.135  71.438  0.00  0.00    -0.123 NA
BRANCH  21  25
ATOM     25  C3  non d ame     -13.298  10.744  71.833  0.00  0.00    -0.029 C 
ATOM     26  H2  non d ame     -14.369  10.827  72.022  0.00  0.00     0.036 H 
ATOM     27  H3  non d ame     -12.746  11.095  72.705  0.00  0.00     0.036 H 
ATOM     28  H4  non d ame     -13.033  11.352  70.967  0.00  0.00     0.036 H 
ENDBRANCH  21  25
ENDBRANCH  16  19
ENDBRANCH  13  15
BRANCH  13  29
ATOM     29  C8  non d ame     -10.146   4.601  67.238  0.00  0.00    -0.049 C 
ATOM     30  H7  non d ame     -10.314   3.532  67.366  0.00  0.00     0.030 H 
ATOM     31  H8  non d ame     -11.074   5.080  66.923  0.00  0.00     0.030 H 
ATOM     32  H9  non d ame      -9.380   4.759  66.480  0.00  0.00     0.030 H 
ENDBRANCH  13  29
ENDBRANCH  10  13
ENDBRANCH   7   9
BRANCH   7  33
ATOM     33  C11 non d ame      -5.400   5.591  66.218  0.00  0.00    -0.033 C 
ATOM     34  H12 non d ame      -4.403   6.018  66.327  0.00  0.00     0.042 H 
BRANCH  33  35
ATOM     35  C12 non d ame      -5.410   4.223  66.968  0.00  0.00    -0.071 C 
ATOM     36  H13 non d ame      -4.848   4.315  67.898  0.00  0.00     0.028 H 
ATOM     37  H14 non d ame      -6.438   3.940  67.193  0.00  0.00     0.028 H 
ATOM     38  H15 non d ame      -4.953   3.461  66.339  0.00  0.00     0.028 H 
ENDBRANCH  33  35
BRANCH  33  39
ATOM     39  C13 non d ame      -5.680   5.402  64.692  0.00  0.00    -0.071 C 
ATOM     40  H16 non d ame      -6.630   5.871  64.437  0.00  0.00     0.028 H 
ATOM     41  H17 non d ame      -4.879   5.864  64.115  0.00  0.00     0.028 H 
ATOM     42  H18 non d ame      -5.728   4.338  64.462  0.00  0.00     0.028 H 
ENDBRANCH  33  39
ENDBRANCH   7  33
ENDBRANCH   4   7
ENDBRANCH   1   3
BRANCH   1  43
ATOM     43  C15 non d ame      -9.295   9.937  64.839  0.00  0.00     0.240 C 
ATOM     44  O5  non d ame     -10.116   9.424  65.531  0.00  0.00    -0.271 OA
ATOM     45  N6  non d ame      -9.425  11.377  64.480  0.00  0.00    -0.355 N 
ATOM     46  H46 non d ame      -8.733  11.825  63.897  0.00  0.00     0.162 HD
BRANCH  45  47
ATOM     47  C20 non d ame     -10.578  12.157  64.980  0.00  0.00     0.013 C 
ATOM     48  H30 non d ame     -11.441  11.491  65.020  0.00  0.00     0.072 H 
BRANCH  47  49
ATOM     49  C21 non d ame     -10.855  13.304  64.035  0.00  0.00    -0.038 C 
ATOM     50  H31 non d ame      -9.895  13.797  63.881  0.00  0.00     0.036 H 
ATOM     51  H32 non d ame     -11.387  12.866  63.190  0.00  0.00     0.036 H 
BRANCH  49  52
ATOM     52  C22 non d ame     -11.798  14.366  64.641  0.00  0.00     0.018 C 
ATOM     53  H33 non d ame     -12.656  14.418  63.969  0.00  0.00     0.048 H 
ATOM     54  H34 non d ame     -11.939  14.075  65.683  0.00  0.00     0.048 H 
BRANCH  52  55
ATOM     55  C23 non d ame     -11.193  15.796  64.672  0.00  0.00     0.259 C 
ATOM     56  O7  non d ame     -11.616  16.645  63.958  0.00  0.00    -0.265 OA
BRANCH  55  57
ATOM     57  O8  non d ame     -10.114  16.078  65.555  0.00  0.00    -0.317 OA
BRANCH  57  58
ATOM     58  C29 non d ame     -10.515  16.657  66.800  0.00  0.00     0.052 C 
ATOM     59  H47 non d ame     -11.577  16.879  66.695  0.00  0.00     0.082 H 
ATOM     60  H48 non d ame     -10.178  15.963  67.570  0.00  0.00     0.082 H 
BRANCH  58  61
ATOM     61  C35 non d ame      -9.749  17.995  66.975  0.00  0.00    -0.034 A 
ATOM     62  C30 non d ame      -8.360  18.016  66.909  0.00  0.00    -0.075 A 
ATOM     63  C31 non d ame      -7.671  19.217  67.066  0.00  0.00    -0.082 A 
ATOM     64  H49 non d ame      -7.811  17.091  66.735  0.00  0.00     0.084 H 
ATOM     65  C32 non d ame      -8.378  20.402  67.292  0.00  0.00    -0.083 A 
ATOM     66  H50 non d ame      -6.583  19.231  67.013  0.00  0.00     0.083 H 
ATOM     67  C33 non d ame      -9.764  20.377  67.360  0.00  0.00    -0.082 A 
ATOM     68  H51 non d ame      -7.847  21.346  67.416  0.00  0.00     0.083 H 
ATOM     69  C34 non d ame     -10.456  19.177  67.201  0.00  0.00    -0.075 A 
ATOM     70  H52 non d ame     -10.312  21.302  67.539  0.00  0.00     0.083 H 
ATOM     71  H53 non d ame     -11.546  19.166  67.255  0.00  0.00     0.084 H 
ENDBRANCH  58  61
ENDBRANCH  57  58
ENDBRANCH  55  57
ENDBRANCH  52  55
ENDBRANCH  49  52
ENDBRANCH  47  49
BRANCH  47  72
ATOM     72  C24 non d ame     -10.266  12.705  66.371  0.00  0.00    -0.039 C 
ATOM     73  H35 non d ame      -9.329  12.232  66.666  0.00  0.00     0.036 H 
ATOM     74  H36 non d ame     -10.323  13.789  66.275  0.00  0.00     0.036 H 
BRANCH  72  75
ATOM     75  C25 non d ame     -11.374  12.267  67.443  0.00  0.00    -0.001 C 
ATOM     76  C26 non d ame     -11.971  13.595  68.207  0.00  0.00    -0.035 C 
ATOM     77  C27 non d ame     -11.902  13.398  69.544  0.00  0.00     0.085 C 
ATOM     78  H38 non d ame     -11.312  14.448  68.041  0.00  0.00     0.036 H 
ATOM     79  H39 non d ame     -13.040  13.688  68.017  0.00  0.00     0.036 H 
ATOM     80  N5  non d ame     -11.016  12.196  69.768  0.00  0.00    -0.049 N 
ATOM     81  H40 non d ame     -11.409  14.283  69.946  0.00  0.00     0.075 H 
ATOM     82  H41 non d ame     -12.918  13.151  69.855  0.00  0.00     0.075 H 
ATOM     83  C28 non d ame     -10.876  11.473  68.331  0.00  0.00     0.193 C 
ATOM     84  H42 non d ame     -10.110  12.554  70.037  0.00  0.00     0.280 HD
ATOM     85  H43 non d ame     -11.519  11.580  70.390  0.00  0.00     0.280 HD
ATOM     86  H44 non d ame     -11.432  10.560  68.115  0.00  0.00     0.129 H 
ATOM     87  H37 non d ame     -12.098  11.568  67.025  0.00  0.00     0.046 H 
BRANCH  83  88
ATOM     88  O6  non d ame      -9.508  11.159  68.069  0.00  0.00    -0.369 OA
ATOM     89  H45 non d ame      -9.441  10.253  67.762  0.00  0.00     0.212 HD
ENDBRANCH  83  88
ENDBRANCH  72  75
ENDBRANCH  47  72
ENDBRANCH  45  47
ENDBRANCH   1  43
BRANCH   1  90
ATOM     90  C16 non d ame      -8.381   8.596  62.918  0.00  0.00    -0.035 C 
ATOM     91  H21 non d ame      -8.208   7.520  62.958  0.00  0.00     0.037 H 
ATOM     92  H22 non d ame      -9.371   8.979  62.674  0.00  0.00     0.037 H 
BRANCH  90  93
ATOM     93  C17 non d ame      -7.409   9.159  61.834  0.00  0.00    -0.059 C 
ATOM     94  H23 non d ame      -7.435   8.479  60.982  0.00  0.00     0.038 H 
BRANCH  93  95
ATOM     95  C18 non d ame      -7.841  10.572  61.330  0.00  0.00    -0.073 C 
ATOM     96  H24 non d ame      -6.967  11.223  61.280  0.00  0.00     0.028 H 
ATOM     97  H25 non d ame      -8.284  10.485  60.338  0.00  0.00     0.028 H 
ATOM     98  H26 non d ame      -8.572  10.996  62.018  0.00  0.00     0.028 H 
ENDBRANCH  93  95
BRANCH  93  99
ATOM     99  C19 non d ame      -5.968   9.181  62.351  0.00  0.00    -0.073 C 
ATOM    100  H27 non d ame      -5.909   9.817  63.234  0.00  0.00     0.028 H 
ATOM    101  H28 non d ame      -5.659   8.168  62.611  0.00  0.00     0.028 H 
ATOM    102  H29 non d ame      -5.310   9.573  61.576  0.00  0.00     0.028 H 
ENDBRANCH  93  99
ENDBRANCH  90  93
ENDBRANCH   1  90
TORSDOF 26
ENDMDL
MODEL 11
REMARK VINA RESULT:      -6.3      3.162      7.747
REMARK  26 active torsions:
REMARK  status: ('A' for Active; 'I' for Inactive)
REMARK    1  A    between atoms: C2_2  and  C3_3 
REMARK    2  A    between atoms: C4_6  and  C5_7 
REMARK       I    between atoms: C5_7  and  N2_9 
REMARK    3  A    between atoms: N2_9  and  C6_10 
REMARK    4  A    between atoms: C6_10  and  C7_11 
REMARK    5  A    between atoms: C6_10  and  C8_13 
REMARK       I    between atoms: C7_11  and  N3_14 
REMARK    6  A    between atoms: N3_14  and  C9_15 
REMARK    7  A    between atoms: C9_15  and  C10_16 
REMARK    8  A    between atoms: C9_15  and  C11_18 
REMARK       I    between atoms: C10_16  and  N4_21 
REMARK    9  A    between atoms: C11_18  and  C12_19 
REMARK   10  A    between atoms: C11_18  and  C13_20 
REMARK   11  A    between atoms: N4_21  and  C14_22 
REMARK   12  A    between atoms: C14_22  and  C15_23 
REMARK   13  A    between atoms: C14_22  and  C16_25 
REMARK       I    between atoms: C15_23  and  N6_40 
REMARK   14  A    between atoms: C16_25  and  C17_26 
REMARK   15  A    between atoms: C17_26  and  C18_27 
REMARK   16  A    between atoms: C17_26  and  C19_28 
REMARK   17  A    between atoms: C20_29  and  C21_30 
REMARK   18  A    between atoms: C20_29  and  C24_33 
REMARK   19  A    between atoms: C20_29  and  N6_40 
REMARK   20  A    between atoms: C21_30  and  C22_31 
REMARK   21  A    between atoms: C22_31  and  C23_32 
REMARK   22  A    between atoms: C23_32  and  O8_43 
REMARK   23  A    between atoms: C24_33  and  C25_34 
REMARK   24  A    between atoms: C28_38  and  O6_39 
REMARK   25  A    between atoms: C29_42  and  O8_43 
REMARK   26  A    between atoms: C29_42  and  C35_49 
ROOT
ATOM      1  C14 non d ame      -8.887  10.087  69.599  0.00  0.00     0.089 C 
ATOM      2  H20 non d ame      -9.191  10.676  70.464  0.00  0.00     0.087 H 
ENDROOT
BRANCH   1   3
ATOM      3  N4  non d ame      -9.809   8.967  69.484  0.00  0.00    -0.346 N 
ATOM      4  C10 non d ame     -10.654   8.552  70.662  0.00  0.00     0.241 C 
ATOM      5  O4  non d ame     -10.571   9.133  71.694  0.00  0.00    -0.271 OA
ATOM      6  H19 non d ame      -9.862   8.485  68.597  0.00  0.00     0.163 HD
BRANCH   4   7
ATOM      7  C9  non d ame     -11.607   7.394  70.524  0.00  0.00     0.092 C 
ATOM      8  H11 non d ame     -12.346   7.628  69.757  0.00  0.00     0.088 H 
BRANCH   7   9
ATOM      9  N3  non d ame     -10.874   6.209  70.070  0.00  0.00    -0.346 N 
ATOM     10  C7  non d ame     -10.791   5.906  68.662  0.00  0.00     0.240 C 
ATOM     11  O3  non d ame     -11.309   6.606  67.880  0.00  0.00    -0.271 OA
ATOM     12  H10 non d ame     -10.423   5.595  70.733  0.00  0.00     0.163 HD
BRANCH  10  13
ATOM     13  C6  non d ame     -10.012   4.641  68.187  0.00  0.00     0.086 C 
ATOM     14  H6  non d ame     -10.661   3.890  67.737  0.00  0.00     0.086 H 
BRANCH  13  15
ATOM     15  N2  non d ame      -9.058   5.033  67.162  0.00  0.00    -0.343 N 
ATOM     16  C5  non d ame      -9.392   4.830  65.751  0.00  0.00     0.273 C 
ATOM     17  O2  non d ame     -10.429   4.349  65.450  0.00  0.00    -0.266 OA
ATOM     18  H5  non d ame      -8.174   5.441  67.427  0.00  0.00     0.163 HD
BRANCH  16  19
ATOM     19  C4  non d ame      -8.394   5.241  64.657  0.00  0.00     0.154 A 
ATOM     20  C1  non d ame      -7.068   5.745  64.842  0.00  0.00    -0.017 A 
ATOM     21  C2  non d ame      -6.577   5.967  63.536  0.00  0.00     0.077 A 
ATOM     22  H1  non d ame      -6.541   5.922  65.780  0.00  0.00     0.091 H 
ATOM     23  O1  non d ame      -7.519   5.626  62.705  0.00  0.00    -0.218 OA
ATOM     24  N1  non d ame      -8.590   5.200  63.336  0.00  0.00    -0.123 NA
BRANCH  21  25
ATOM     25  C3  non d ame      -5.201   6.504  63.169  0.00  0.00    -0.029 C 
ATOM     26  H2  non d ame      -5.265   7.068  62.237  0.00  0.00     0.036 H 
ATOM     27  H3  non d ame      -4.842   7.157  63.964  0.00  0.00     0.036 H 
ATOM     28  H4  non d ame      -4.507   5.672  63.042  0.00  0.00     0.036 H 
ENDBRANCH  21  25
ENDBRANCH  16  19
ENDBRANCH  13  15
BRANCH  13  29
ATOM     29  C8  non d ame      -9.289   4.023  69.356  0.00  0.00    -0.049 C 
ATOM     30  H7  non d ame      -8.825   4.808  69.954  0.00  0.00     0.030 H 
ATOM     31  H8  non d ame      -9.999   3.469  69.971  0.00  0.00     0.030 H 
ATOM     32  H9  non d ame      -8.519   3.345  68.989  0.00  0.00     0.030 H 
ENDBRANCH  13  29
ENDBRANCH  10  13
ENDBRANCH   7   9
BRANCH   7  33
ATOM     33  C11 non d ame     -12.267   7.098  71.902  0.00  0.00    -0.033 C 
ATOM     34  H12 non d ame     -12.009   7.917  72.573  0.00  0.00     0.042 H 
BRANCH  33  35
ATOM     35  C12 non d ame     -13.823   7.055  71.790  0.00  0.00    -0.071 C 
ATOM     36  H13 non d ame     -14.256   7.775  72.485  0.00  0.00     0.028 H 
ATOM     37  H14 non d ame     -14.121   7.308  70.773  0.00  0.00     0.028 H 
ATOM     38  H15 non d ame     -14.177   6.054  72.034  0.00  0.00     0.028 H 
ENDBRANCH  33  35
BRANCH  33  39
ATOM     39  C13 non d ame     -11.707   5.775  72.517  0.00  0.00    -0.071 C 
ATOM     40  H16 non d ame     -11.398   5.955  73.546  0.00  0.00     0.028 H 
ATOM     41  H17 non d ame     -12.482   5.008  72.498  0.00  0.00     0.028 H 
ATOM     42  H18 non d ame     -10.849   5.439  71.933  0.00  0.00     0.028 H 
ENDBRANCH  33  39
ENDBRANCH   7  33
ENDBRANCH   4   7
ENDBRANCH   1   3
BRANCH   1  43
ATOM     43  C15 non d ame      -8.940  10.910  68.280  0.00  0.00     0.240 C 
ATOM     44  O5  non d ame      -8.377  10.511  67.311  0.00  0.00    -0.271 OA
ATOM     45  N6  non d ame      -9.699  12.192  68.221  0.00  0.00    -0.355 N 
ATOM     46  H46 non d ame     -10.184  12.538  69.036  0.00  0.00     0.162 HD
BRANCH  45  47
ATOM     47  C20 non d ame      -9.741  12.962  66.959  0.00  0.00     0.013 C 
ATOM     48  H30 non d ame      -9.259  12.364  66.186  0.00  0.00     0.072 H 
BRANCH  47  49
ATOM     49  C21 non d ame      -8.996  14.265  67.143  0.00  0.00    -0.038 C 
ATOM     50  H31 non d ame      -7.939  13.997  67.182  0.00  0.00     0.036 H 
ATOM     51  H32 non d ame      -9.363  14.927  66.358  0.00  0.00     0.036 H 
BRANCH  49  52
ATOM     52  C22 non d ame      -9.321  14.957  68.485  0.00  0.00     0.018 C 
ATOM     53  H33 non d ame     -10.075  14.332  68.965  0.00  0.00     0.048 H 
ATOM     54  H34 non d ame      -8.360  15.123  68.972  0.00  0.00     0.048 H 
BRANCH  52  55
ATOM     55  C23 non d ame      -9.969  16.360  68.324  0.00  0.00     0.259 C 
ATOM     56  O7  non d ame      -9.417  17.211  67.705  0.00  0.00    -0.265 OA
BRANCH  55  57
ATOM     57  O8  non d ame     -11.225  16.622  68.936  0.00  0.00    -0.317 OA
BRANCH  57  58
ATOM     58  C29 non d ame     -11.998  15.449  69.208  0.00  0.00     0.052 C 
ATOM     59  H47 non d ame     -12.869  15.512  68.557  0.00  0.00     0.082 H 
ATOM     60  H48 non d ame     -11.306  14.612  69.113  0.00  0.00     0.082 H 
BRANCH  58  61
ATOM     61  C35 non d ame     -12.479  15.524  70.682  0.00  0.00    -0.034 A 
ATOM     62  C30 non d ame     -13.779  15.154  71.010  0.00  0.00    -0.075 A 
ATOM     63  C31 non d ame     -14.211  15.221  72.333  0.00  0.00    -0.082 A 
ATOM     64  H49 non d ame     -14.459  14.812  70.230  0.00  0.00     0.084 H 
ATOM     65  C32 non d ame     -13.338  15.662  73.331  0.00  0.00    -0.083 A 
ATOM     66  H50 non d ame     -15.230  14.929  72.587  0.00  0.00     0.083 H 
ATOM     67  C33 non d ame     -12.042  16.034  72.999  0.00  0.00    -0.082 A 
ATOM     68  H51 non d ame     -13.667  15.718  74.368  0.00  0.00     0.083 H 
ATOM     69  C34 non d ame     -11.605  15.966  71.677  0.00  0.00    -0.075 A 
ATOM     70  H52 non d ame     -11.364  16.380  73.779  0.00  0.00     0.083 H 
ATOM     71  H53 non d ame     -10.585  16.259  71.424  0.00  0.00     0.084 H 
ENDBRANCH  58  61
ENDBRANCH  57  58
ENDBRANCH  55  57
ENDBRANCH  52  55
ENDBRANCH  49  52
ENDBRANCH  47  49
BRANCH  47  72
ATOM     72  C24 non d ame     -11.191  13.252  66.580  0.00  0.00    -0.039 C 
ATOM     73  H35 non d ame     -11.768  13.090  67.490  0.00  0.00     0.036 H 
ATOM     74  H36 non d ame     -11.177  14.237  66.112  0.00  0.00     0.036 H 
BRANCH  72  75
ATOM     75  C25 non d ame     -11.735  12.217  65.485  0.00  0.00    -0.001 C 
ATOM     76  C26 non d ame     -10.480  11.382  64.829  0.00  0.00    -0.035 C 
ATOM     77  C27 non d ame     -10.562  11.458  63.480  0.00  0.00     0.085 C 
ATOM     78  H38 non d ame      -9.539  11.884  65.055  0.00  0.00     0.036 H 
ATOM     79  H39 non d ame     -10.592  10.317  65.032  0.00  0.00     0.036 H 
ATOM     80  N5  non d ame     -11.568  12.536  63.158  0.00  0.00    -0.049 N 
ATOM     81  H40 non d ame      -9.576  11.780  63.144  0.00  0.00     0.075 H 
ATOM     82  H41 non d ame     -10.960  10.495  63.158  0.00  0.00     0.075 H 
ATOM     83  C28 non d ame     -12.361  12.829  64.534  0.00  0.00     0.193 C 
ATOM     84  H42 non d ame     -11.037  13.360  62.913  0.00  0.00     0.280 HD
ATOM     85  H43 non d ame     -12.215  12.137  62.494  0.00  0.00     0.280 HD
ATOM     86  H44 non d ame     -13.371  12.447  64.683  0.00  0.00     0.129 H 
ATOM     87  H37 non d ame     -12.581  11.635  65.851  0.00  0.00     0.046 H 
BRANCH  83  88
ATOM     88  O6  non d ame     -12.447  14.236  64.763  0.00  0.00    -0.369 OA
ATOM     89  H45 non d ame     -12.935  14.399  65.573  0.00  0.00     0.212 HD
ENDBRANCH  83  88
ENDBRANCH  72  75
ENDBRANCH  47  72
ENDBRANCH  45  47
ENDBRANCH   1  43
BRANCH   1  90
ATOM     90  C16 non d ame      -7.479   9.551  69.810  0.00  0.00    -0.035 C 
ATOM     91  H21 non d ame      -6.865  10.050  69.060  0.00  0.00     0.037 H 
ATOM     92  H22 non d ame      -7.271   9.698  70.870  0.00  0.00     0.037 H 
BRANCH  90  93
ATOM     93  C17 non d ame      -7.345   8.019  69.542  0.00  0.00    -0.059 C 
ATOM     94  H23 non d ame      -8.339   7.636  69.309  0.00  0.00     0.038 H 
BRANCH  93  95
ATOM     95  C18 non d ame      -6.418   7.712  68.323  0.00  0.00    -0.073 C 
ATOM     96  H24 non d ame      -6.898   6.975  67.678  0.00  0.00     0.028 H 
ATOM     97  H25 non d ame      -6.243   8.628  67.760  0.00  0.00     0.028 H 
ATOM     98  H26 non d ame      -5.466   7.318  68.680  0.00  0.00     0.028 H 
ENDBRANCH  93  95
BRANCH  93  99
ATOM     99  C19 non d ame      -6.860   7.285  70.795  0.00  0.00    -0.073 C 
ATOM    100  H27 non d ame      -6.750   7.997  71.613  0.00  0.00     0.028 H 
ATOM    101  H28 non d ame      -7.586   6.521  71.073  0.00  0.00     0.028 H 
ATOM    102  H29 non d ame      -5.898   6.816  70.591  0.00  0.00     0.028 H 
ENDBRANCH  93  99
ENDBRANCH  90  93
ENDBRANCH   1  90
TORSDOF 26
ENDMDL
MODEL 12
REMARK VINA RESULT:      -6.3      3.533      8.530
REMARK  26 active torsions:
REMARK  status: ('A' for Active; 'I' for Inactive)
REMARK    1  A    between atoms: C2_2  and  C3_3 
REMARK    2  A    between atoms: C4_6  and  C5_7 
REMARK       I    between atoms: C5_7  and  N2_9 
REMARK    3  A    between atoms: N2_9  and  C6_10 
REMARK    4  A    between atoms: C6_10  and  C7_11 
REMARK    5  A    between atoms: C6_10  and  C8_13 
REMARK       I    between atoms: C7_11  and  N3_14 
REMARK    6  A    between atoms: N3_14  and  C9_15 
REMARK    7  A    between atoms: C9_15  and  C10_16 
REMARK    8  A    between atoms: C9_15  and  C11_18 
REMARK       I    between atoms: C10_16  and  N4_21 
REMARK    9  A    between atoms: C11_18  and  C12_19 
REMARK   10  A    between atoms: C11_18  and  C13_20 
REMARK   11  A    between atoms: N4_21  and  C14_22 
REMARK   12  A    between atoms: C14_22  and  C15_23 
REMARK   13  A    between atoms: C14_22  and  C16_25 
REMARK       I    between atoms: C15_23  and  N6_40 
REMARK   14  A    between atoms: C16_25  and  C17_26 
REMARK   15  A    between atoms: C17_26  and  C18_27 
REMARK   16  A    between atoms: C17_26  and  C19_28 
REMARK   17  A    between atoms: C20_29  and  C21_30 
REMARK   18  A    between atoms: C20_29  and  C24_33 
REMARK   19  A    between atoms: C20_29  and  N6_40 
REMARK   20  A    between atoms: C21_30  and  C22_31 
REMARK   21  A    between atoms: C22_31  and  C23_32 
REMARK   22  A    between atoms: C23_32  and  O8_43 
REMARK   23  A    between atoms: C24_33  and  C25_34 
REMARK   24  A    between atoms: C28_38  and  O6_39 
REMARK   25  A    between atoms: C29_42  and  O8_43 
REMARK   26  A    between atoms: C29_42  and  C35_49 
ROOT
ATOM      1  C14 non d ame      -8.474   8.827  64.467  0.00  0.00     0.089 C 
ATOM      2  H20 non d ame      -8.508   8.318  63.504  0.00  0.00     0.087 H 
ENDROOT
BRANCH   1   3
ATOM      3  N4  non d ame      -9.645   9.687  64.551  0.00  0.00    -0.346 N 
ATOM      4  C10 non d ame      -9.716  10.777  65.592  0.00  0.00     0.241 C 
ATOM      5  O4  non d ame      -8.819  10.940  66.352  0.00  0.00    -0.271 OA
ATOM      6  H19 non d ame     -10.398   9.530  63.896  0.00  0.00     0.163 HD
BRANCH   4   7
ATOM      7  C9  non d ame     -10.933  11.661  65.661  0.00  0.00     0.092 C 
ATOM      8  H11 non d ame     -11.808  11.051  65.881  0.00  0.00     0.088 H 
BRANCH   7   9
ATOM      9  N3  non d ame     -10.782  12.615  66.765  0.00  0.00    -0.346 N 
ATOM     10  C7  non d ame     -11.428  12.363  68.029  0.00  0.00     0.240 C 
ATOM     11  O3  non d ame     -12.075  11.398  68.176  0.00  0.00    -0.271 OA
ATOM     12  H10 non d ame     -10.229  13.452  66.652  0.00  0.00     0.163 HD
BRANCH  10  13
ATOM     13  C6  non d ame     -11.266  13.383  69.198  0.00  0.00     0.086 C 
ATOM     14  H6  non d ame     -10.300  13.304  69.697  0.00  0.00     0.086 H 
BRANCH  13  15
ATOM     15  N2  non d ame     -11.348  14.731  68.661  0.00  0.00    -0.343 N 
ATOM     16  C5  non d ame     -10.289  15.695  68.968  0.00  0.00     0.273 C 
ATOM     17  O2  non d ame      -9.376  15.376  69.648  0.00  0.00    -0.266 OA
ATOM     18  H5  non d ame     -12.132  14.996  68.083  0.00  0.00     0.163 HD
BRANCH  16  19
ATOM     19  C4  non d ame     -10.361  17.123  68.406  0.00  0.00     0.154 A 
ATOM     20  C1  non d ame     -10.374  17.510  67.028  0.00  0.00    -0.017 A 
ATOM     21  C2  non d ame     -10.449  18.921  67.047  0.00  0.00     0.077 A 
ATOM     22  H1  non d ame     -10.334  16.867  66.148  0.00  0.00     0.091 H 
ATOM     23  O1  non d ame     -10.477  19.291  68.294  0.00  0.00    -0.218 OA
ATOM     24  N1  non d ame     -10.427  18.259  69.106  0.00  0.00    -0.123 NA
BRANCH  21  25
ATOM     25  C3  non d ame     -10.491  19.838  65.832  0.00  0.00    -0.029 C 
ATOM     26  H2  non d ame     -10.482  20.878  66.160  0.00  0.00     0.036 H 
ATOM     27  H3  non d ame      -9.621  19.648  65.204  0.00  0.00     0.036 H 
ATOM     28  H4  non d ame     -11.400  19.645  65.261  0.00  0.00     0.036 H 
ENDBRANCH  21  25
ENDBRANCH  16  19
ENDBRANCH  13  15
BRANCH  13  29
ATOM     29  C8  non d ame     -12.358  13.165  70.214  0.00  0.00    -0.049 C 
ATOM     30  H7  non d ame     -13.082  12.450  69.823  0.00  0.00     0.030 H 
ATOM     31  H8  non d ame     -11.923  12.775  71.136  0.00  0.00     0.030 H 
ATOM     32  H9  non d ame     -12.857  14.110  70.420  0.00  0.00     0.030 H 
ENDBRANCH  13  29
ENDBRANCH  10  13
ENDBRANCH   7   9
BRANCH   7  33
ATOM     33  C11 non d ame     -11.085  12.441  64.322  0.00  0.00    -0.033 C 
ATOM     34  H12 non d ame     -10.231  12.185  63.694  0.00  0.00     0.042 H 
BRANCH  33  35
ATOM     35  C12 non d ame     -12.375  12.011  63.557  0.00  0.00    -0.071 C 
ATOM     36  H13 non d ame     -12.286  10.969  63.252  0.00  0.00     0.028 H 
ATOM     37  H14 non d ame     -13.240  12.125  64.211  0.00  0.00     0.028 H 
ATOM     38  H15 non d ame     -12.501  12.640  62.676  0.00  0.00     0.028 H 
ENDBRANCH  33  35
BRANCH  33  39
ATOM     39  C13 non d ame     -11.059  13.984  64.568  0.00  0.00    -0.071 C 
ATOM     40  H16 non d ame     -10.652  14.485  63.690  0.00  0.00     0.028 H 
ATOM     41  H17 non d ame     -12.073  14.340  64.753  0.00  0.00     0.028 H 
ATOM     42  H18 non d ame     -10.433  14.202  65.433  0.00  0.00     0.028 H 
ENDBRANCH  33  39
ENDBRANCH   7  33
ENDBRANCH   4   7
ENDBRANCH   1   3
BRANCH   1  43
ATOM     43  C15 non d ame      -8.506   7.830  65.660  0.00  0.00     0.240 C 
ATOM     44  O5  non d ame      -7.599   7.799  66.430  0.00  0.00    -0.271 OA
ATOM     45  N6  non d ame      -9.670   6.918  65.850  0.00  0.00    -0.355 N 
ATOM     46  H46 non d ame     -10.447   6.938  65.206  0.00  0.00     0.162 HD
BRANCH  45  47
ATOM     47  C20 non d ame      -9.685   5.977  66.990  0.00  0.00     0.013 C 
ATOM     48  H30 non d ame      -8.756   6.107  67.545  0.00  0.00     0.072 H 
BRANCH  47  49
ATOM     49  C21 non d ame      -9.780   4.561  66.469  0.00  0.00    -0.038 C 
ATOM     50  H31 non d ame     -10.839   4.388  66.276  0.00  0.00     0.036 H 
ATOM     51  H32 non d ame      -9.059   4.500  65.652  0.00  0.00     0.036 H 
BRANCH  49  52
ATOM     52  C22 non d ame      -9.348   3.507  67.511  0.00  0.00     0.018 C 
ATOM     53  H33 non d ame      -9.522   3.966  68.485  0.00  0.00     0.048 H 
ATOM     54  H34 non d ame      -9.871   2.590  67.240  0.00  0.00     0.048 H 
BRANCH  52  55
ATOM     55  C23 non d ame      -7.832   3.166  67.465  0.00  0.00     0.259 C 
ATOM     56  O7  non d ame      -7.463   2.045  67.598  0.00  0.00    -0.265 OA
BRANCH  55  57
ATOM     57  O8  non d ame      -6.888   4.212  67.275  0.00  0.00    -0.317 OA
BRANCH  57  58
ATOM     58  C29 non d ame      -5.793   3.863  66.422  0.00  0.00     0.052 C 
ATOM     59  H47 non d ame      -5.012   3.488  67.083  0.00  0.00     0.082 H 
ATOM     60  H48 non d ame      -6.214   3.214  65.654  0.00  0.00     0.082 H 
BRANCH  58  61
ATOM     61  C35 non d ame      -5.281   5.160  65.743  0.00  0.00    -0.034 A 
ATOM     62  C30 non d ame      -4.549   6.088  66.476  0.00  0.00    -0.075 A 
ATOM     63  C31 non d ame      -4.089   7.254  65.866  0.00  0.00    -0.082 A 
ATOM     64  H49 non d ame      -4.335   5.901  67.528  0.00  0.00     0.084 H 
ATOM     65  C32 non d ame      -4.366   7.492  64.517  0.00  0.00    -0.083 A 
ATOM     66  H50 non d ame      -3.513   7.978  66.443  0.00  0.00     0.083 H 
ATOM     67  C33 non d ame      -5.101   6.565  63.790  0.00  0.00    -0.082 A 
ATOM     68  H51 non d ame      -4.011   8.401  64.032  0.00  0.00     0.083 H 
ATOM     69  C34 non d ame      -5.560   5.397  64.396  0.00  0.00    -0.075 A 
ATOM     70  H52 non d ame      -5.318   6.755  62.739  0.00  0.00     0.083 H 
ATOM     71  H53 non d ame      -6.136   4.673  63.817  0.00  0.00     0.084 H 
ENDBRANCH  58  61
ENDBRANCH  57  58
ENDBRANCH  55  57
ENDBRANCH  52  55
ENDBRANCH  49  52
ENDBRANCH  47  49
BRANCH  47  72
ATOM     72  C24 non d ame     -10.886   6.271  67.887  0.00  0.00    -0.039 C 
ATOM     73  H35 non d ame     -11.522   6.942  67.309  0.00  0.00     0.036 H 
ATOM     74  H36 non d ame     -11.263   5.297  68.197  0.00  0.00     0.036 H 
BRANCH  72  75
ATOM     75  C25 non d ame     -10.454   7.056  69.215  0.00  0.00    -0.001 C 
ATOM     76  C26 non d ame     -11.297   6.481  70.505  0.00  0.00    -0.035 C 
ATOM     77  C27 non d ame     -11.861   7.525  71.159  0.00  0.00     0.085 C 
ATOM     78  H38 non d ame     -12.155   5.903  70.162  0.00  0.00     0.036 H 
ATOM     79  H39 non d ame     -10.613   6.058  71.241  0.00  0.00     0.036 H 
ATOM     80  N5  non d ame     -11.751   8.726  70.251  0.00  0.00    -0.049 N 
ATOM     81  H40 non d ame     -12.913   7.262  71.276  0.00  0.00     0.075 H 
ATOM     82  H41 non d ame     -11.238   7.688  72.038  0.00  0.00     0.075 H 
ATOM     83  C28 non d ame     -10.686   8.322  69.106  0.00  0.00     0.193 C 
ATOM     84  H42 non d ame     -12.657   8.842  69.820  0.00  0.00     0.280 HD
ATOM     85  H43 non d ame     -11.358   9.471  70.807  0.00  0.00     0.280 HD
ATOM     86  H44 non d ame      -9.669   8.714  69.134  0.00  0.00     0.129 H 
ATOM     87  H37 non d ame      -9.372   7.125  69.321  0.00  0.00     0.046 H 
BRANCH  83  88
ATOM     88  O6  non d ame     -11.194   8.669  67.817  0.00  0.00    -0.369 OA
ATOM     89  H45 non d ame     -11.200   7.890  67.256  0.00  0.00     0.212 HD
ENDBRANCH  83  88
ENDBRANCH  72  75
ENDBRANCH  47  72
ENDBRANCH  45  47
ENDBRANCH   1  43
BRANCH   1  90
ATOM     90  C16 non d ame      -7.220   9.684  64.551  0.00  0.00    -0.035 C 
ATOM     91  H21 non d ame      -7.507  10.557  65.138  0.00  0.00     0.037 H 
ATOM     92  H22 non d ame      -6.439   9.017  64.913  0.00  0.00     0.037 H 
BRANCH  90  93
ATOM     93  C17 non d ame      -6.737  10.224  63.168  0.00  0.00    -0.059 C 
ATOM     94  H23 non d ame      -7.330  11.107  62.932  0.00  0.00     0.038 H 
BRANCH  93  95
ATOM     95  C18 non d ame      -5.235  10.651  63.193  0.00  0.00    -0.073 C 
ATOM     96  H24 non d ame      -4.605   9.775  63.033  0.00  0.00     0.028 H 
ATOM     97  H25 non d ame      -5.051  11.379  62.402  0.00  0.00     0.028 H 
ATOM     98  H26 non d ame      -5.000  11.098  64.159  0.00  0.00     0.028 H 
ENDBRANCH  93  95
BRANCH  93  99
ATOM     99  C19 non d ame      -6.993   9.197  62.061  0.00  0.00    -0.073 C 
ATOM    100  H27 non d ame      -7.450   8.306  62.492  0.00  0.00     0.028 H 
ATOM    101  H28 non d ame      -7.663   9.625  61.316  0.00  0.00     0.028 H 
ATOM    102  H29 non d ame      -6.048   8.928  61.590  0.00  0.00     0.028 H 
ENDBRANCH  93  99
ENDBRANCH  90  93
ENDBRANCH   1  90
TORSDOF 26
ENDMDL
MODEL 13
REMARK VINA RESULT:      -6.3      3.288      7.420
REMARK  26 active torsions:
REMARK  status: ('A' for Active; 'I' for Inactive)
REMARK    1  A    between atoms: C2_2  and  C3_3 
REMARK    2  A    between atoms: C4_6  and  C5_7 
REMARK       I    between atoms: C5_7  and  N2_9 
REMARK    3  A    between atoms: N2_9  and  C6_10 
REMARK    4  A    between atoms: C6_10  and  C7_11 
REMARK    5  A    between atoms: C6_10  and  C8_13 
REMARK       I    between atoms: C7_11  and  N3_14 
REMARK    6  A    between atoms: N3_14  and  C9_15 
REMARK    7  A    between atoms: C9_15  and  C10_16 
REMARK    8  A    between atoms: C9_15  and  C11_18 
REMARK       I    between atoms: C10_16  and  N4_21 
REMARK    9  A    between atoms: C11_18  and  C12_19 
REMARK   10  A    between atoms: C11_18  and  C13_20 
REMARK   11  A    between atoms: N4_21  and  C14_22 
REMARK   12  A    between atoms: C14_22  and  C15_23 
REMARK   13  A    between atoms: C14_22  and  C16_25 
REMARK       I    between atoms: C15_23  and  N6_40 
REMARK   14  A    between atoms: C16_25  and  C17_26 
REMARK   15  A    between atoms: C17_26  and  C18_27 
REMARK   16  A    between atoms: C17_26  and  C19_28 
REMARK   17  A    between atoms: C20_29  and  C21_30 
REMARK   18  A    between atoms: C20_29  and  C24_33 
REMARK   19  A    between atoms: C20_29  and  N6_40 
REMARK   20  A    between atoms: C21_30  and  C22_31 
REMARK   21  A    between atoms: C22_31  and  C23_32 
REMARK   22  A    between atoms: C23_32  and  O8_43 
REMARK   23  A    between atoms: C24_33  and  C25_34 
REMARK   24  A    between atoms: C28_38  and  O6_39 
REMARK   25  A    between atoms: C29_42  and  O8_43 
REMARK   26  A    between atoms: C29_42  and  C35_49 
ROOT
ATOM      1  C14 non d ame     -11.403   8.939  69.673  0.00  0.00     0.089 C 
ATOM      2  H20 non d ame     -12.401   8.567  69.438  0.00  0.00     0.087 H 
ENDROOT
BRANCH   1   3
ATOM      3  N4  non d ame     -10.598   7.800  70.089  0.00  0.00    -0.346 N 
ATOM      4  C10 non d ame     -11.251   6.588  70.703  0.00  0.00     0.241 C 
ATOM      5  O4  non d ame     -12.428   6.554  70.856  0.00  0.00    -0.271 OA
ATOM      6  H19 non d ame      -9.597   7.851  69.953  0.00  0.00     0.163 HD
BRANCH   4   7
ATOM      7  C9  non d ame     -10.403   5.417  71.123  0.00  0.00     0.092 C 
ATOM      8  H11 non d ame     -10.914   4.491  70.858  0.00  0.00     0.088 H 
BRANCH   7   9
ATOM      9  N3  non d ame      -9.137   5.440  70.384  0.00  0.00    -0.346 N 
ATOM     10  C7  non d ame      -8.913   4.506  69.308  0.00  0.00     0.240 C 
ATOM     11  O3  non d ame      -9.740   3.728  69.025  0.00  0.00    -0.271 OA
ATOM     12  H10 non d ame      -8.414   6.104  70.618  0.00  0.00     0.163 HD
BRANCH  10  13
ATOM     13  C6  non d ame      -7.562   4.534  68.528  0.00  0.00     0.086 C 
ATOM     14  H6  non d ame      -7.296   3.563  68.110  0.00  0.00     0.086 H 
BRANCH  13  15
ATOM     15  N2  non d ame      -7.685   5.450  67.406  0.00  0.00    -0.343 N 
ATOM     16  C5  non d ame      -6.852   5.251  66.218  0.00  0.00     0.273 C 
ATOM     17  O2  non d ame      -6.084   4.353  66.176  0.00  0.00    -0.266 OA
ATOM     18  H5  non d ame      -8.342   6.215  67.450  0.00  0.00     0.163 HD
BRANCH  16  19
ATOM     19  C4  non d ame      -6.972   6.210  65.023  0.00  0.00     0.154 A 
ATOM     20  C1  non d ame      -5.940   7.026  64.462  0.00  0.00    -0.017 A 
ATOM     21  C2  non d ame      -6.558   7.712  63.394  0.00  0.00     0.077 A 
ATOM     22  H1  non d ame      -4.900   7.108  64.782  0.00  0.00     0.091 H 
ATOM     23  O1  non d ame      -7.801   7.327  63.353  0.00  0.00    -0.218 OA
ATOM     24  N1  non d ame      -8.066   6.450  64.295  0.00  0.00    -0.123 NA
BRANCH  21  25
ATOM     25  C3  non d ame      -5.893   8.715  62.461  0.00  0.00    -0.029 C 
ATOM     26  H2  non d ame      -5.604   8.216  61.535  0.00  0.00     0.036 H 
ATOM     27  H3  non d ame      -6.592   9.520  62.236  0.00  0.00     0.036 H 
ATOM     28  H4  non d ame      -5.007   9.129  62.943  0.00  0.00     0.036 H 
ENDBRANCH  21  25
ENDBRANCH  16  19
ENDBRANCH  13  15
BRANCH  13  29
ATOM     29  C8  non d ame      -6.457   4.989  69.446  0.00  0.00    -0.049 C 
ATOM     30  H7  non d ame      -5.495   4.677  69.040  0.00  0.00     0.030 H 
ATOM     31  H8  non d ame      -6.480   6.076  69.531  0.00  0.00     0.030 H 
ATOM     32  H9  non d ame      -6.596   4.545  70.431  0.00  0.00     0.030 H 
ENDBRANCH  13  29
ENDBRANCH  10  13
ENDBRANCH   7   9
BRANCH   7  33
ATOM     33  C11 non d ame     -10.112   5.508  72.650  0.00  0.00    -0.033 C 
ATOM     34  H12 non d ame     -10.573   6.424  73.018  0.00  0.00     0.042 H 
BRANCH  33  35
ATOM     35  C12 non d ame     -10.755   4.315  73.423  0.00  0.00    -0.071 C 
ATOM     36  H13 non d ame     -11.787   4.185  73.097  0.00  0.00     0.028 H 
ATOM     37  H14 non d ame     -10.193   3.404  73.219  0.00  0.00     0.028 H 
ATOM     38  H15 non d ame     -10.733   4.522  74.493  0.00  0.00     0.028 H 
ENDBRANCH  33  35
BRANCH  33  39
ATOM     39  C13 non d ame      -8.576   5.597  72.921  0.00  0.00    -0.071 C 
ATOM     40  H16 non d ame      -8.392   5.542  73.994  0.00  0.00     0.028 H 
ATOM     41  H17 non d ame      -8.070   4.769  72.423  0.00  0.00     0.028 H 
ATOM     42  H18 non d ame      -8.194   6.542  72.535  0.00  0.00     0.028 H 
ENDBRANCH  33  39
ENDBRANCH   7  33
ENDBRANCH   4   7
ENDBRANCH   1   3
BRANCH   1  43
ATOM     43  C15 non d ame     -10.720   9.606  68.445  0.00  0.00     0.240 C 
ATOM     44  O5  non d ame      -9.909   9.003  67.819  0.00  0.00    -0.271 OA
ATOM     45  N6  non d ame     -11.083  10.995  68.044  0.00  0.00    -0.355 N 
ATOM     46  H46 non d ame     -11.773  11.517  68.565  0.00  0.00     0.162 HD
BRANCH  45  47
ATOM     47  C20 non d ame     -10.425  11.616  66.874  0.00  0.00     0.013 C 
ATOM     48  H30 non d ame      -9.741  10.883  66.446  0.00  0.00     0.072 H 
BRANCH  47  49
ATOM     49  C21 non d ame      -9.657  12.839  67.321  0.00  0.00    -0.038 C 
ATOM     50  H31 non d ame      -8.788  12.461  67.860  0.00  0.00     0.036 H 
ATOM     51  H32 non d ame      -9.523  13.445  66.425  0.00  0.00     0.036 H 
BRANCH  49  52
ATOM     52  C22 non d ame     -10.448  13.710  68.321  0.00  0.00     0.018 C 
ATOM     53  H33 non d ame     -11.367  13.162  68.529  0.00  0.00     0.048 H 
ATOM     54  H34 non d ame      -9.752  13.934  69.131  0.00  0.00     0.048 H 
BRANCH  52  55
ATOM     55  C23 non d ame     -10.890  15.083  67.742  0.00  0.00     0.259 C 
ATOM     56  O7  non d ame     -10.676  15.354  66.606  0.00  0.00    -0.265 OA
BRANCH  55  57
ATOM     57  O8  non d ame     -11.541  16.020  68.590  0.00  0.00    -0.317 OA
BRANCH  57  58
ATOM     58  C29 non d ame     -10.910  16.194  69.862  0.00  0.00     0.052 C 
ATOM     59  H47 non d ame     -10.138  15.426  69.916  0.00  0.00     0.082 H 
ATOM     60  H48 non d ame     -10.635  17.247  69.913  0.00  0.00     0.082 H 
BRANCH  58  61
ATOM     61  C35 non d ame     -11.965  15.908  70.964  0.00  0.00    -0.034 A 
ATOM     62  C30 non d ame     -13.218  15.413  70.617  0.00  0.00    -0.075 A 
ATOM     63  C31 non d ame     -14.166  15.157  71.606  0.00  0.00    -0.082 A 
ATOM     64  H49 non d ame     -13.457  15.226  69.571  0.00  0.00     0.084 H 
ATOM     65  C32 non d ame     -13.857  15.400  72.947  0.00  0.00    -0.083 A 
ATOM     66  H50 non d ame     -15.146  14.768  71.331  0.00  0.00     0.083 H 
ATOM     67  C33 non d ame     -12.607  15.897  73.289  0.00  0.00    -0.082 A 
ATOM     68  H51 non d ame     -14.593  15.202  73.727  0.00  0.00     0.083 H 
ATOM     69  C34 non d ame     -11.656  16.152  72.303  0.00  0.00    -0.075 A 
ATOM     70  H52 non d ame     -12.370  16.087  74.336  0.00  0.00     0.083 H 
ATOM     71  H53 non d ame     -10.675  16.541  72.580  0.00  0.00     0.084 H 
ENDBRANCH  58  61
ENDBRANCH  57  58
ENDBRANCH  55  57
ENDBRANCH  52  55
ENDBRANCH  49  52
ENDBRANCH  47  49
BRANCH  47  72
ATOM     72  C24 non d ame     -11.478  12.022  65.845  0.00  0.00    -0.039 C 
ATOM     73  H35 non d ame     -12.424  11.640  66.231  0.00  0.00     0.036 H 
ATOM     74  H36 non d ame     -11.343  13.094  65.699  0.00  0.00     0.036 H 
BRANCH  72  75
ATOM     75  C25 non d ame     -11.226  11.317  64.429  0.00  0.00    -0.001 C 
ATOM     76  C26 non d ame     -10.022  10.206  64.562  0.00  0.00    -0.035 C 
ATOM     77  C27 non d ame      -9.106  10.436  63.591  0.00  0.00     0.085 C 
ATOM     78  H38 non d ame      -9.463  10.370  65.483  0.00  0.00     0.036 H 
ATOM     79  H39 non d ame     -10.402   9.212  64.324  0.00  0.00     0.036 H 
ATOM     80  N5  non d ame      -9.408  11.797  63.012  0.00  0.00    -0.049 N 
ATOM     81  H40 non d ame      -8.143  10.471  64.100  0.00  0.00     0.075 H 
ATOM     82  H41 non d ame      -9.293   9.678  62.829  0.00  0.00     0.075 H 
ATOM     83  C28 non d ame     -10.888  12.182  63.530  0.00  0.00     0.193 C 
ATOM     84  H42 non d ame      -8.746  12.437  63.428  0.00  0.00     0.280 HD
ATOM     85  H43 non d ame      -9.438  11.682  62.010  0.00  0.00     0.280 HD
ATOM     86  H44 non d ame     -11.744  12.116  62.858  0.00  0.00     0.129 H 
ATOM     87  H37 non d ame     -12.154  10.990  63.960  0.00  0.00     0.046 H 
BRANCH  83  88
ATOM     88  O6  non d ame     -10.901  13.518  64.035  0.00  0.00    -0.369 OA
ATOM     89  H45 non d ame     -11.681  13.974  63.713  0.00  0.00     0.212 HD
ENDBRANCH  83  88
ENDBRANCH  72  75
ENDBRANCH  47  72
ENDBRANCH  45  47
ENDBRANCH   1  43
BRANCH   1  90
ATOM     90  C16 non d ame     -11.483   9.936  70.818  0.00  0.00    -0.035 C 
ATOM     91  H21 non d ame     -11.066   9.417  71.682  0.00  0.00     0.037 H 
ATOM     92  H22 non d ame     -11.007  10.842  70.446  0.00  0.00     0.037 H 
BRANCH  90  93
ATOM     93  C17 non d ame     -12.944  10.330  71.205  0.00  0.00    -0.059 C 
ATOM     94  H23 non d ame     -13.552  10.270  70.302  0.00  0.00     0.038 H 
BRANCH  93  95
ATOM     95  C18 non d ame     -13.559   9.358  72.260  0.00  0.00    -0.073 C 
ATOM     96  H24 non d ame     -13.034   8.402  72.223  0.00  0.00     0.028 H 
ATOM     97  H25 non d ame     -13.455   9.789  73.256  0.00  0.00     0.028 H 
ATOM     98  H26 non d ame     -14.615   9.202  72.041  0.00  0.00     0.028 H 
ENDBRANCH  93  95
BRANCH  93  99
ATOM     99  C19 non d ame     -13.006  11.779  71.697  0.00  0.00    -0.073 C 
ATOM    100  H27 non d ame     -13.778  11.870  72.460  0.00  0.00     0.028 H 
ATOM    101  H28 non d ame     -12.042  12.061  72.119  0.00  0.00     0.028 H 
ATOM    102  H29 non d ame     -13.243  12.436  70.861  0.00  0.00     0.028 H 
ENDBRANCH  93  99
ENDBRANCH  90  93
ENDBRANCH   1  90
TORSDOF 26
ENDMDL
MODEL 14
REMARK VINA RESULT:      -6.2      2.535      7.466
REMARK  26 active torsions:
REMARK  status: ('A' for Active; 'I' for Inactive)
REMARK    1  A    between atoms: C2_2  and  C3_3 
REMARK    2  A    between atoms: C4_6  and  C5_7 
REMARK       I    between atoms: C5_7  and  N2_9 
REMARK    3  A    between atoms: N2_9  and  C6_10 
REMARK    4  A    between atoms: C6_10  and  C7_11 
REMARK    5  A    between atoms: C6_10  and  C8_13 
REMARK       I    between atoms: C7_11  and  N3_14 
REMARK    6  A    between atoms: N3_14  and  C9_15 
REMARK    7  A    between atoms: C9_15  and  C10_16 
REMARK    8  A    between atoms: C9_15  and  C11_18 
REMARK       I    between atoms: C10_16  and  N4_21 
REMARK    9  A    between atoms: C11_18  and  C12_19 
REMARK   10  A    between atoms: C11_18  and  C13_20 
REMARK   11  A    between atoms: N4_21  and  C14_22 
REMARK   12  A    between atoms: C14_22  and  C15_23 
REMARK   13  A    between atoms: C14_22  and  C16_25 
REMARK       I    between atoms: C15_23  and  N6_40 
REMARK   14  A    between atoms: C16_25  and  C17_26 
REMARK   15  A    between atoms: C17_26  and  C18_27 
REMARK   16  A    between atoms: C17_26  and  C19_28 
REMARK   17  A    between atoms: C20_29  and  C21_30 
REMARK   18  A    between atoms: C20_29  and  C24_33 
REMARK   19  A    between atoms: C20_29  and  N6_40 
REMARK   20  A    between atoms: C21_30  and  C22_31 
REMARK   21  A    between atoms: C22_31  and  C23_32 
REMARK   22  A    between atoms: C23_32  and  O8_43 
REMARK   23  A    between atoms: C24_33  and  C25_34 
REMARK   24  A    between atoms: C28_38  and  O6_39 
REMARK   25  A    between atoms: C29_42  and  O8_43 
REMARK   26  A    between atoms: C29_42  and  C35_49 
ROOT
ATOM      1  C14 non d ame      -6.968  13.054  68.168  0.00  0.00     0.089 C 
ATOM      2  H20 non d ame      -6.209  12.867  67.408  0.00  0.00     0.087 H 
ENDROOT
BRANCH   1   3
ATOM      3  N4  non d ame      -7.213  14.488  68.199  0.00  0.00    -0.346 N 
ATOM      4  C10 non d ame      -6.154  15.453  67.729  0.00  0.00     0.241 C 
ATOM      5  O4  non d ame      -5.110  15.051  67.331  0.00  0.00    -0.271 OA
ATOM      6  H19 non d ame      -8.107  14.810  68.544  0.00  0.00     0.163 HD
BRANCH   4   7
ATOM      7  C9  non d ame      -6.426  16.934  67.763  0.00  0.00     0.092 C 
ATOM      8  H11 non d ame      -6.164  17.369  66.799  0.00  0.00     0.088 H 
BRANCH   7   9
ATOM      9  N3  non d ame      -7.860  17.162  67.965  0.00  0.00    -0.346 N 
ATOM     10  C7  non d ame      -8.676  17.639  66.876  0.00  0.00     0.240 C 
ATOM     11  O3  non d ame      -8.194  17.845  65.829  0.00  0.00    -0.271 OA
ATOM     12  H10 non d ame      -8.289  16.990  68.863  0.00  0.00     0.163 HD
BRANCH  10  13
ATOM     13  C6  non d ame     -10.200  17.883  67.098  0.00  0.00     0.086 C 
ATOM     14  H6  non d ame     -10.820  17.398  66.345  0.00  0.00     0.086 H 
BRANCH  13  15
ATOM     15  N2  non d ame     -10.585  17.318  68.381  0.00  0.00    -0.343 N 
ATOM     16  C5  non d ame     -11.197  15.987  68.428  0.00  0.00     0.273 C 
ATOM     17  O2  non d ame     -11.376  15.382  67.429  0.00  0.00    -0.266 OA
ATOM     18  H5  non d ame     -10.431  17.842  69.229  0.00  0.00     0.163 HD
BRANCH  16  19
ATOM     19  C4  non d ame     -11.607  15.376  69.776  0.00  0.00     0.154 A 
ATOM     20  C1  non d ame     -11.628  16.028  71.050  0.00  0.00    -0.017 A 
ATOM     21  C2  non d ame     -12.075  15.040  71.957  0.00  0.00     0.077 A 
ATOM     22  H1  non d ame     -11.360  17.059  71.282  0.00  0.00     0.091 H 
ATOM     23  O1  non d ame     -12.285  13.953  71.273  0.00  0.00    -0.218 OA
ATOM     24  N1  non d ame     -12.018  14.124  69.998  0.00  0.00    -0.123 NA
BRANCH  21  25
ATOM     25  C3  non d ame     -12.276  15.218  73.455  0.00  0.00    -0.029 C 
ATOM     26  H2  non d ame     -11.305  15.276  73.949  0.00  0.00     0.036 H 
ATOM     27  H3  non d ame     -12.833  16.136  73.641  0.00  0.00     0.036 H 
ATOM     28  H4  non d ame     -12.835  14.369  73.851  0.00  0.00     0.036 H 
ENDBRANCH  21  25
ENDBRANCH  16  19
ENDBRANCH  13  15
BRANCH  13  29
ATOM     29  C8  non d ame     -10.483  19.364  67.082  0.00  0.00    -0.049 C 
ATOM     30  H7  non d ame      -9.578  19.904  66.802  0.00  0.00     0.030 H 
ATOM     31  H8  non d ame     -11.271  19.575  66.358  0.00  0.00     0.030 H 
ATOM     32  H9  non d ame     -10.804  19.683  68.072  0.00  0.00     0.030 H 
ENDBRANCH  13  29
ENDBRANCH  10  13
ENDBRANCH   7   9
BRANCH   7  33
ATOM     33  C11 non d ame      -5.630  17.581  68.933  0.00  0.00    -0.033 C 
ATOM     34  H12 non d ame      -5.514  16.825  69.710  0.00  0.00     0.042 H 
BRANCH  33  35
ATOM     35  C12 non d ame      -4.200  18.010  68.479  0.00  0.00    -0.071 C 
ATOM     36  H13 non d ame      -4.241  19.009  68.044  0.00  0.00     0.028 H 
ATOM     37  H14 non d ame      -3.532  18.016  69.340  0.00  0.00     0.028 H 
ATOM     38  H15 non d ame      -3.828  17.304  67.737  0.00  0.00     0.028 H 
ENDBRANCH  33  35
BRANCH  33  39
ATOM     39  C13 non d ame      -6.415  18.786  69.544  0.00  0.00    -0.071 C 
ATOM     40  H16 non d ame      -5.731  19.617  69.714  0.00  0.00     0.028 H 
ATOM     41  H17 non d ame      -7.201  19.095  68.855  0.00  0.00     0.028 H 
ATOM     42  H18 non d ame      -6.861  18.484  70.492  0.00  0.00     0.028 H 
ENDBRANCH  33  39
ENDBRANCH   7  33
ENDBRANCH   4   7
ENDBRANCH   1   3
BRANCH   1  43
ATOM     43  C15 non d ame      -8.307  12.330  67.852  0.00  0.00     0.240 C 
ATOM     44  O5  non d ame      -9.341  12.852  68.123  0.00  0.00    -0.271 OA
ATOM     45  N6  non d ame      -8.303  10.988  67.203  0.00  0.00    -0.355 N 
ATOM     46  H46 non d ame      -7.432  10.536  66.964  0.00  0.00     0.162 HD
BRANCH  45  47
ATOM     47  C20 non d ame      -9.585  10.312  66.908  0.00  0.00     0.013 C 
ATOM     48  H30 non d ame     -10.384  10.892  67.372  0.00  0.00     0.072 H 
BRANCH  47  49
ATOM     49  C21 non d ame      -9.559   8.915  67.485  0.00  0.00    -0.038 C 
ATOM     50  H31 non d ame      -8.630   8.467  67.131  0.00  0.00     0.036 H 
ATOM     51  H32 non d ame      -9.734   9.036  68.554  0.00  0.00     0.036 H 
BRANCH  49  52
ATOM     52  C22 non d ame     -10.704   8.026  66.954  0.00  0.00     0.018 C 
ATOM     53  H33 non d ame     -11.625   8.477  67.324  0.00  0.00     0.048 H 
ATOM     54  H34 non d ame     -10.534   7.935  65.880  0.00  0.00     0.048 H 
BRANCH  52  55
ATOM     55  C23 non d ame     -10.683   6.577  67.516  0.00  0.00     0.259 C 
ATOM     56  O7  non d ame     -11.006   6.362  68.638  0.00  0.00    -0.265 OA
BRANCH  55  57
ATOM     57  O8  non d ame     -10.259   5.510  66.677  0.00  0.00    -0.317 OA
BRANCH  57  58
ATOM     58  C29 non d ame      -8.850   5.269  66.705  0.00  0.00     0.052 C 
ATOM     59  H47 non d ame      -8.429   6.054  67.333  0.00  0.00     0.082 H 
ATOM     60  H48 non d ame      -8.735   4.223  66.991  0.00  0.00     0.082 H 
BRANCH  58  61
ATOM     61  C35 non d ame      -8.304   5.446  65.264  0.00  0.00    -0.034 A 
ATOM     62  C30 non d ame      -9.060   5.023  64.176  0.00  0.00    -0.075 A 
ATOM     63  C31 non d ame      -8.570   5.182  62.881  0.00  0.00    -0.082 A 
ATOM     64  H49 non d ame     -10.036   4.567  64.338  0.00  0.00     0.084 H 
ATOM     65  C32 non d ame      -7.317   5.765  62.675  0.00  0.00    -0.083 A 
ATOM     66  H50 non d ame      -9.166   4.851  62.030  0.00  0.00     0.083 H 
ATOM     67  C33 non d ame      -6.564   6.183  63.764  0.00  0.00    -0.082 A 
ATOM     68  H51 non d ame      -6.926   5.894  61.666  0.00  0.00     0.083 H 
ATOM     69  C34 non d ame      -7.051   6.028  65.061  0.00  0.00    -0.075 A 
ATOM     70  H52 non d ame      -5.585   6.636  63.601  0.00  0.00     0.083 H 
ATOM     71  H53 non d ame      -6.454   6.360  65.911  0.00  0.00     0.084 H 
ENDBRANCH  58  61
ENDBRANCH  57  58
ENDBRANCH  55  57
ENDBRANCH  52  55
ENDBRANCH  49  52
ENDBRANCH  47  49
BRANCH  47  72
ATOM     72  C24 non d ame      -9.793  10.237  65.397  0.00  0.00    -0.039 C 
ATOM     73  H35 non d ame      -8.819   9.978  64.982  0.00  0.00     0.036 H 
ATOM     74  H36 non d ame     -10.641   9.567  65.253  0.00  0.00     0.036 H 
BRANCH  72  75
ATOM     75  C25 non d ame     -10.205  11.658  64.784  0.00  0.00    -0.001 C 
ATOM     76  C26 non d ame     -11.597  12.188  65.480  0.00  0.00    -0.035 C 
ATOM     77  C27 non d ame     -12.472  12.529  64.504  0.00  0.00     0.085 C 
ATOM     78  H38 non d ame     -12.096  11.364  65.991  0.00  0.00     0.036 H 
ATOM     79  H39 non d ame     -11.420  13.127  66.004  0.00  0.00     0.036 H 
ATOM     80  N5  non d ame     -11.926  11.976  63.209  0.00  0.00    -0.049 N 
ATOM     81  H40 non d ame     -13.400  12.011  64.748  0.00  0.00     0.075 H 
ATOM     82  H41 non d ame     -12.450  13.618  64.461  0.00  0.00     0.075 H 
ATOM     83  C28 non d ame     -10.389  11.581  63.507  0.00  0.00     0.193 C 
ATOM     84  H42 non d ame     -12.444  11.130  63.018  0.00  0.00     0.280 HD
ATOM     85  H43 non d ame     -11.939  12.736  62.545  0.00  0.00     0.280 HD
ATOM     86  H44 non d ame      -9.576  12.213  63.150  0.00  0.00     0.129 H 
ATOM     87  H37 non d ame      -9.367  12.355  64.758  0.00  0.00     0.046 H 
BRANCH  83  88
ATOM     88  O6  non d ame     -10.109  10.276  63.000  0.00  0.00    -0.369 OA
ATOM     89  H45 non d ame     -10.933   9.833  62.786  0.00  0.00     0.212 HD
ENDBRANCH  83  88
ENDBRANCH  72  75
ENDBRANCH  47  72
ENDBRANCH  45  47
ENDBRANCH   1  43
BRANCH   1  90
ATOM     90  C16 non d ame      -6.454  12.608  69.529  0.00  0.00    -0.035 C 
ATOM     91  H21 non d ame      -6.164  13.525  70.042  0.00  0.00     0.037 H 
ATOM     92  H22 non d ame      -7.241  11.979  69.942  0.00  0.00     0.037 H 
BRANCH  90  93
ATOM     93  C17 non d ame      -5.172  11.721  69.454  0.00  0.00    -0.059 C 
ATOM     94  H23 non d ame      -4.959  11.536  68.401  0.00  0.00     0.038 H 
BRANCH  93  95
ATOM     95  C18 non d ame      -3.926  12.430  70.074  0.00  0.00    -0.073 C 
ATOM     96  H24 non d ame      -3.016  11.972  69.685  0.00  0.00     0.028 H 
ATOM     97  H25 non d ame      -3.941  13.487  69.811  0.00  0.00     0.028 H 
ATOM     98  H26 non d ame      -3.951  12.325  71.159  0.00  0.00     0.028 H 
ENDBRANCH  93  95
BRANCH  93  99
ATOM     99  C19 non d ame      -5.410  10.360  70.114  0.00  0.00    -0.073 C 
ATOM    100  H27 non d ame      -6.151  10.466  70.906  0.00  0.00     0.028 H 
ATOM    101  H28 non d ame      -5.772   9.653  69.368  0.00  0.00     0.028 H 
ATOM    102  H29 non d ame      -4.475   9.994  70.539  0.00  0.00     0.028 H 
ENDBRANCH  93  99
ENDBRANCH  90  93
ENDBRANCH   1  90
TORSDOF 26
ENDMDL
MODEL 15
REMARK VINA RESULT:      -6.2      2.594      7.982
REMARK  26 active torsions:
REMARK  status: ('A' for Active; 'I' for Inactive)
REMARK    1  A    between atoms: C2_2  and  C3_3 
REMARK    2  A    between atoms: C4_6  and  C5_7 
REMARK       I    between atoms: C5_7  and  N2_9 
REMARK    3  A    between atoms: N2_9  and  C6_10 
REMARK    4  A    between atoms: C6_10  and  C7_11 
REMARK    5  A    between atoms: C6_10  and  C8_13 
REMARK       I    between atoms: C7_11  and  N3_14 
REMARK    6  A    between atoms: N3_14  and  C9_15 
REMARK    7  A    between atoms: C9_15  and  C10_16 
REMARK    8  A    between atoms: C9_15  and  C11_18 
REMARK       I    between atoms: C10_16  and  N4_21 
REMARK    9  A    between atoms: C11_18  and  C12_19 
REMARK   10  A    between atoms: C11_18  and  C13_20 
REMARK   11  A    between atoms: N4_21  and  C14_22 
REMARK   12  A    between atoms: C14_22  and  C15_23 
REMARK   13  A    between atoms: C14_22  and  C16_25 
REMARK       I    between atoms: C15_23  and  N6_40 
REMARK   14  A    between atoms: C16_25  and  C17_26 
REMARK   15  A    between atoms: C17_26  and  C18_27 
REMARK   16  A    between atoms: C17_26  and  C19_28 
REMARK   17  A    between atoms: C20_29  and  C21_30 
REMARK   18  A    between atoms: C20_29  and  C24_33 
REMARK   19  A    between atoms: C20_29  and  N6_40 
REMARK   20  A    between atoms: C21_30  and  C22_31 
REMARK   21  A    between atoms: C22_31  and  C23_32 
REMARK   22  A    between atoms: C23_32  and  O8_43 
REMARK   23  A    between atoms: C24_33  and  C25_34 
REMARK   24  A    between atoms: C28_38  and  O6_39 
REMARK   25  A    between atoms: C29_42  and  O8_43 
REMARK   26  A    between atoms: C29_42  and  C35_49 
ROOT
ATOM      1  C14 non d ame      -9.715  11.627  65.716  0.00  0.00     0.089 C 
ATOM      2  H20 non d ame      -9.523  12.067  64.737  0.00  0.00     0.087 H 
ENDROOT
BRANCH   1   3
ATOM      3  N4  non d ame      -9.036  10.341  65.759  0.00  0.00    -0.346 N 
ATOM      4  C10 non d ame      -8.862   9.528  64.501  0.00  0.00     0.241 C 
ATOM      5  O4  non d ame      -9.280   9.930  63.465  0.00  0.00    -0.271 OA
ATOM      6  H19 non d ame      -8.690  10.015  66.652  0.00  0.00     0.163 HD
BRANCH   4   7
ATOM      7  C9  non d ame      -8.152   8.201  64.563  0.00  0.00     0.092 C 
ATOM      8  H11 non d ame      -7.236   8.311  65.143  0.00  0.00     0.088 H 
BRANCH   7   9
ATOM      9  N3  non d ame      -8.995   7.229  65.265  0.00  0.00    -0.346 N 
ATOM     10  C7  non d ame      -8.653   6.811  66.602  0.00  0.00     0.240 C 
ATOM     11  O3  non d ame      -7.701   7.246  67.128  0.00  0.00    -0.271 OA
ATOM     12  H10 non d ame      -9.817   6.843  64.824  0.00  0.00     0.163 HD
BRANCH  10  13
ATOM     13  C6  non d ame      -9.551   5.773  67.343  0.00  0.00     0.086 C 
ATOM     14  H6  non d ame      -8.973   5.019  67.878  0.00  0.00     0.086 H 
BRANCH  13  15
ATOM     15  N2  non d ame     -10.350   6.467  68.339  0.00  0.00    -0.343 N 
ATOM     16  C5  non d ame      -9.940   6.432  69.745  0.00  0.00     0.273 C 
ATOM     17  O2  non d ame      -8.969   5.840  70.064  0.00  0.00    -0.266 OA
ATOM     18  H5  non d ame     -11.180   6.969  68.058  0.00  0.00     0.163 HD
BRANCH  16  19
ATOM     19  C4  non d ame     -10.774   7.164  70.808  0.00  0.00     0.154 A 
ATOM     20  C1  non d ame     -11.766   8.172  70.586  0.00  0.00    -0.017 A 
ATOM     21  C2  non d ame     -12.231   8.515  71.876  0.00  0.00     0.077 A 
ATOM     22  H1  non d ame     -12.098   8.590  69.636  0.00  0.00     0.091 H 
ATOM     23  O1  non d ame     -11.578   7.783  72.731  0.00  0.00    -0.218 OA
ATOM     24  N1  non d ame     -10.721   6.987  72.131  0.00  0.00    -0.123 NA
BRANCH  21  25
ATOM     25  C3  non d ame     -13.300   9.548  72.203  0.00  0.00    -0.029 C 
ATOM     26  H2  non d ame     -13.155  10.432  71.580  0.00  0.00     0.036 H 
ATOM     27  H3  non d ame     -14.285   9.125  72.009  0.00  0.00     0.036 H 
ATOM     28  H4  non d ame     -13.226   9.828  73.254  0.00  0.00     0.036 H 
ENDBRANCH  21  25
ENDBRANCH  16  19
ENDBRANCH  13  15
BRANCH  13  29
ATOM     29  C8  non d ame     -10.451   5.082  66.350  0.00  0.00    -0.049 C 
ATOM     30  H7  non d ame     -10.014   4.124  66.068  0.00  0.00     0.030 H 
ATOM     31  H8  non d ame     -11.430   4.916  66.802  0.00  0.00     0.030 H 
ATOM     32  H9  non d ame     -10.560   5.706  65.464  0.00  0.00     0.030 H 
ENDBRANCH  13  29
ENDBRANCH  10  13
ENDBRANCH   7   9
BRANCH   7  33
ATOM     33  C11 non d ame      -7.873   7.694  63.118  0.00  0.00    -0.033 C 
ATOM     34  H12 non d ame      -8.551   8.222  62.447  0.00  0.00     0.042 H 
BRANCH  33  35
ATOM     35  C12 non d ame      -6.416   8.028  62.670  0.00  0.00    -0.071 C 
ATOM     36  H13 non d ame      -6.372   9.060  62.319  0.00  0.00     0.028 H 
ATOM     37  H14 non d ame      -5.738   7.903  63.514  0.00  0.00     0.028 H 
ATOM     38  H15 non d ame      -6.121   7.356  61.864  0.00  0.00     0.028 H 
ENDBRANCH  33  35
BRANCH  33  39
ATOM     39  C13 non d ame      -8.166   6.164  62.996  0.00  0.00    -0.071 C 
ATOM     40  H16 non d ame      -8.072   5.858  61.955  0.00  0.00     0.028 H 
ATOM     41  H17 non d ame      -7.454   5.608  63.605  0.00  0.00     0.028 H 
ATOM     42  H18 non d ame      -9.179   5.961  63.344  0.00  0.00     0.028 H 
ENDBRANCH  33  39
ENDBRANCH   7  33
ENDBRANCH   4   7
ENDBRANCH   1   3
BRANCH   1  43
ATOM     43  C15 non d ame      -9.172  12.513  66.874  0.00  0.00     0.240 C 
ATOM     44  O5  non d ame      -9.204  12.109  67.992  0.00  0.00    -0.271 OA
ATOM     45  N6  non d ame      -8.604  13.861  66.589  0.00  0.00    -0.355 N 
ATOM     46  H46 non d ame      -8.568  14.213  65.644  0.00  0.00     0.162 HD
BRANCH  45  47
ATOM     47  C20 non d ame      -8.091  14.690  67.701  0.00  0.00     0.013 C 
ATOM     48  H30 non d ame      -8.516  14.306  68.629  0.00  0.00     0.072 H 
BRANCH  47  49
ATOM     49  C21 non d ame      -8.517  16.126  67.493  0.00  0.00    -0.038 C 
ATOM     50  H31 non d ame      -7.594  16.696  67.393  0.00  0.00     0.036 H 
ATOM     51  H32 non d ame      -9.236  16.103  66.673  0.00  0.00     0.036 H 
BRANCH  49  52
ATOM     52  C22 non d ame      -9.264  16.712  68.710  0.00  0.00     0.018 C 
ATOM     53  H33 non d ame      -9.393  15.882  69.406  0.00  0.00     0.048 H 
ATOM     54  H34 non d ame      -8.695  17.592  69.011  0.00  0.00     0.048 H 
BRANCH  52  55
ATOM     55  C23 non d ame     -10.696  17.218  68.381  0.00  0.00     0.259 C 
ATOM     56  O7  non d ame     -10.853  18.223  67.767  0.00  0.00    -0.265 OA
BRANCH  55  57
ATOM     57  O8  non d ame     -11.820  16.475  68.835  0.00  0.00    -0.317 OA
BRANCH  57  58
ATOM     58  C29 non d ame     -11.499  15.166  69.315  0.00  0.00     0.052 C 
ATOM     59  H47 non d ame     -12.031  14.474  68.662  0.00  0.00     0.082 H 
ATOM     60  H48 non d ame     -10.411  15.133  69.374  0.00  0.00     0.082 H 
BRANCH  58  61
ATOM     61  C35 non d ame     -12.073  15.028  70.750  0.00  0.00    -0.034 A 
ATOM     62  C30 non d ame     -12.855  13.927  71.084  0.00  0.00    -0.075 A 
ATOM     63  C31 non d ame     -13.371  13.802  72.373  0.00  0.00    -0.082 A 
ATOM     64  H49 non d ame     -13.063  13.162  70.337  0.00  0.00     0.084 H 
ATOM     65  C32 non d ame     -13.104  14.786  73.329  0.00  0.00    -0.083 A 
ATOM     66  H50 non d ame     -13.981  12.938  72.632  0.00  0.00     0.083 H 
ATOM     67  C33 non d ame     -12.326  15.885  72.991  0.00  0.00    -0.082 A 
ATOM     68  H51 non d ame     -13.503  14.697  74.340  0.00  0.00     0.083 H 
ATOM     69  C34 non d ame     -11.806  16.011  71.704  0.00  0.00    -0.075 A 
ATOM     70  H52 non d ame     -12.121  16.652  73.738  0.00  0.00     0.083 H 
ATOM     71  H53 non d ame     -11.195  16.877  71.445  0.00  0.00     0.084 H 
ENDBRANCH  58  61
ENDBRANCH  57  58
ENDBRANCH  55  57
ENDBRANCH  52  55
ENDBRANCH  49  52
ENDBRANCH  47  49
BRANCH  47  72
ATOM     72  C24 non d ame      -6.567  14.611  67.743  0.00  0.00    -0.039 C 
ATOM     73  H35 non d ame      -6.278  14.080  66.836  0.00  0.00     0.036 H 
ATOM     74  H36 non d ame      -6.227  15.635  67.906  0.00  0.00     0.036 H 
BRANCH  72  75
ATOM     75  C25 non d ame      -6.052  13.740  68.985  0.00  0.00    -0.001 C 
ATOM     76  C26 non d ame      -5.750  14.720  70.271  0.00  0.00    -0.035 C 
ATOM     77  C27 non d ame      -4.505  14.460  70.735  0.00  0.00     0.085 C 
ATOM     78  H38 non d ame      -5.687  15.757  69.943  0.00  0.00     0.036 H 
ATOM     79  H39 non d ame      -6.396  14.450  71.107  0.00  0.00     0.036 H 
ATOM     80  N5  non d ame      -3.808  13.626  69.687  0.00  0.00    -0.049 N 
ATOM     81  H40 non d ame      -4.010  15.429  70.805  0.00  0.00     0.075 H 
ATOM     82  H41 non d ame      -4.649  13.855  71.631  0.00  0.00     0.075 H 
ATOM     83  C28 non d ame      -4.967  13.103  68.692  0.00  0.00     0.193 C 
ATOM     84  H42 non d ame      -3.205  14.254  69.176  0.00  0.00     0.280 HD
ATOM     85  H43 non d ame      -3.415  12.830  70.169  0.00  0.00     0.280 HD
ATOM     86  H44 non d ame      -5.320  12.073  68.746  0.00  0.00     0.129 H 
ATOM     87  H37 non d ame      -6.678  12.866  69.164  0.00  0.00     0.046 H 
BRANCH  83  88
ATOM     88  O6  non d ame      -4.576  13.303  67.333  0.00  0.00    -0.369 OA
ATOM     89  H45 non d ame      -5.018  12.660  66.775  0.00  0.00     0.212 HD
ENDBRANCH  83  88
ENDBRANCH  72  75
ENDBRANCH  47  72
ENDBRANCH  45  47
ENDBRANCH   1  43
BRANCH   1  90
ATOM     90  C16 non d ame     -11.209  11.407  65.898  0.00  0.00    -0.035 C 
ATOM     91  H21 non d ame     -11.401  10.404  65.516  0.00  0.00     0.037 H 
ATOM     92  H22 non d ame     -11.409  11.639  66.943  0.00  0.00     0.037 H 
BRANCH  90  93
ATOM     93  C17 non d ame     -12.092  12.378  65.052  0.00  0.00    -0.059 C 
ATOM     94  H23 non d ame     -13.060  11.898  64.903  0.00  0.00     0.038 H 
BRANCH  93  95
ATOM     95  C18 non d ame     -12.340  13.736  65.781  0.00  0.00    -0.073 C 
ATOM     96  H24 non d ame     -13.271  14.176  65.422  0.00  0.00     0.028 H 
ATOM     97  H25 non d ame     -12.411  13.565  66.855  0.00  0.00     0.028 H 
ATOM     98  H26 non d ame     -11.513  14.416  65.575  0.00  0.00     0.028 H 
ENDBRANCH  93  95
BRANCH  93  99
ATOM     99  C19 non d ame     -11.481  12.605  63.667  0.00  0.00    -0.073 C 
ATOM    100  H27 non d ame     -10.394  12.554  63.737  0.00  0.00     0.028 H 
ATOM    101  H28 non d ame     -11.838  11.837  62.981  0.00  0.00     0.028 H 
ATOM    102  H29 non d ame     -11.775  13.587  63.297  0.00  0.00     0.028 H 
ENDBRANCH  93  99
ENDBRANCH  90  93
ENDBRANCH   1  90
TORSDOF 26
ENDMDL
MODEL 16
REMARK VINA RESULT:      -6.2      2.648      5.398
REMARK  26 active torsions:
REMARK  status: ('A' for Active; 'I' for Inactive)
REMARK    1  A    between atoms: C2_2  and  C3_3 
REMARK    2  A    between atoms: C4_6  and  C5_7 
REMARK       I    between atoms: C5_7  and  N2_9 
REMARK    3  A    between atoms: N2_9  and  C6_10 
REMARK    4  A    between atoms: C6_10  and  C7_11 
REMARK    5  A    between atoms: C6_10  and  C8_13 
REMARK       I    between atoms: C7_11  and  N3_14 
REMARK    6  A    between atoms: N3_14  and  C9_15 
REMARK    7  A    between atoms: C9_15  and  C10_16 
REMARK    8  A    between atoms: C9_15  and  C11_18 
REMARK       I    between atoms: C10_16  and  N4_21 
REMARK    9  A    between atoms: C11_18  and  C12_19 
REMARK   10  A    between atoms: C11_18  and  C13_20 
REMARK   11  A    between atoms: N4_21  and  C14_22 
REMARK   12  A    between atoms: C14_22  and  C15_23 
REMARK   13  A    between atoms: C14_22  and  C16_25 
REMARK       I    between atoms: C15_23  and  N6_40 
REMARK   14  A    between atoms: C16_25  and  C17_26 
REMARK   15  A    between atoms: C17_26  and  C18_27 
REMARK   16  A    between atoms: C17_26  and  C19_28 
REMARK   17  A    between atoms: C20_29  and  C21_30 
REMARK   18  A    between atoms: C20_29  and  C24_33 
REMARK   19  A    between atoms: C20_29  and  N6_40 
REMARK   20  A    between atoms: C21_30  and  C22_31 
REMARK   21  A    between atoms: C22_31  and  C23_32 
REMARK   22  A    between atoms: C23_32  and  O8_43 
REMARK   23  A    between atoms: C24_33  and  C25_34 
REMARK   24  A    between atoms: C28_38  and  O6_39 
REMARK   25  A    between atoms: C29_42  and  O8_43 
REMARK   26  A    between atoms: C29_42  and  C35_49 
ROOT
ATOM      1  C14 non d ame     -12.181  14.144  69.701  0.00  0.00     0.089 C 
ATOM      2  H20 non d ame     -13.199  13.819  69.489  0.00  0.00     0.087 H 
ENDROOT
BRANCH   1   3
ATOM      3  N4  non d ame     -11.385  12.953  69.958  0.00  0.00    -0.346 N 
ATOM      4  C10 non d ame     -11.564  11.720  69.108  0.00  0.00     0.241 C 
ATOM      5  O4  non d ame     -12.357  11.710  68.225  0.00  0.00    -0.271 OA
ATOM      6  H19 non d ame     -10.717  12.981  70.716  0.00  0.00     0.163 HD
BRANCH   4   7
ATOM      7  C9  non d ame     -10.729  10.498  69.383  0.00  0.00     0.092 C 
ATOM      8  H11 non d ame     -10.127  10.668  70.277  0.00  0.00     0.088 H 
BRANCH   7   9
ATOM      9  N3  non d ame     -11.607   9.358  69.665  0.00  0.00    -0.346 N 
ATOM     10  C7  non d ame     -12.182   9.197  70.977  0.00  0.00     0.240 C 
ATOM     11  O3  non d ame     -11.948   9.975  71.820  0.00  0.00    -0.271 OA
ATOM     12  H10 non d ame     -11.816   8.678  68.948  0.00  0.00     0.163 HD
BRANCH  10  13
ATOM     13  C6  non d ame     -13.113   7.980  71.270  0.00  0.00     0.086 C 
ATOM     14  H6  non d ame     -13.379   7.425  70.371  0.00  0.00     0.086 H 
BRANCH  13  15
ATOM     15  N2  non d ame     -12.412   7.050  72.140  0.00  0.00    -0.343 N 
ATOM     16  C5  non d ame     -11.437   6.120  71.565  0.00  0.00     0.273 C 
ATOM     17  O2  non d ame     -11.226   6.127  70.402  0.00  0.00    -0.266 OA
ATOM     18  H5  non d ame     -12.600   7.049  73.132  0.00  0.00     0.163 HD
BRANCH  16  19
ATOM     19  C4  non d ame     -10.686   5.133  72.473  0.00  0.00     0.154 A 
ATOM     20  C1  non d ame      -9.406   4.541  72.233  0.00  0.00    -0.017 A 
ATOM     21  C2  non d ame      -9.169   3.718  73.357  0.00  0.00     0.077 A 
ATOM     22  H1  non d ame      -8.748   4.686  71.376  0.00  0.00     0.091 H 
ATOM     23  O1  non d ame     -10.199   3.832  74.145  0.00  0.00    -0.218 OA
ATOM     24  N1  non d ame     -11.098   4.652  73.649  0.00  0.00    -0.123 NA
BRANCH  21  25
ATOM     25  C3  non d ame      -7.937   2.858  73.602  0.00  0.00    -0.029 C 
ATOM     26  H2  non d ame      -7.388   2.734  72.668  0.00  0.00     0.036 H 
ATOM     27  H3  non d ame      -7.296   3.344  74.337  0.00  0.00     0.036 H 
ATOM     28  H4  non d ame      -8.243   1.881  73.976  0.00  0.00     0.036 H 
ENDBRANCH  21  25
ENDBRANCH  16  19
ENDBRANCH  13  15
BRANCH  13  29
ATOM     29  C8  non d ame     -14.376   8.459  71.939  0.00  0.00    -0.049 C 
ATOM     30  H7  non d ame     -15.226   8.286  71.278  0.00  0.00     0.030 H 
ATOM     31  H8  non d ame     -14.524   7.911  72.871  0.00  0.00     0.030 H 
ATOM     32  H9  non d ame     -14.293   9.523  72.153  0.00  0.00     0.030 H 
ENDBRANCH  13  29
ENDBRANCH  10  13
ENDBRANCH   7   9
BRANCH   7  33
ATOM     33  C11 non d ame      -9.850  10.178  68.139  0.00  0.00    -0.033 C 
ATOM     34  H12 non d ame     -10.511  10.132  67.273  0.00  0.00     0.042 H 
BRANCH  33  35
ATOM     35  C12 non d ame      -8.808  11.309  67.873  0.00  0.00    -0.071 C 
ATOM     36  H13 non d ame      -8.160  11.418  68.743  0.00  0.00     0.028 H 
ATOM     37  H14 non d ame      -8.205  11.051  67.002  0.00  0.00     0.028 H 
ATOM     38  H15 non d ame      -9.330  12.247  67.687  0.00  0.00     0.028 H 
ENDBRANCH  33  35
BRANCH  33  39
ATOM     39  C13 non d ame      -9.152   8.788  68.289  0.00  0.00    -0.071 C 
ATOM     40  H16 non d ame      -9.905   8.001  68.276  0.00  0.00     0.028 H 
ATOM     41  H17 non d ame      -8.455   8.640  67.464  0.00  0.00     0.028 H 
ATOM     42  H18 non d ame      -8.609   8.756  69.233  0.00  0.00     0.028 H 
ENDBRANCH  33  39
ENDBRANCH   7  33
ENDBRANCH   4   7
ENDBRANCH   1   3
BRANCH   1  43
ATOM     43  C15 non d ame     -11.548  14.915  68.507  0.00  0.00     0.240 C 
ATOM     44  O5  non d ame     -11.665  16.096  68.437  0.00  0.00    -0.271 OA
ATOM     45  N6  non d ame     -10.788  14.182  67.455  0.00  0.00    -0.355 N 
ATOM     46  H46 non d ame     -10.679  13.179  67.505  0.00  0.00     0.162 HD
BRANCH  45  47
ATOM     47  C20 non d ame     -10.192  14.929  66.327  0.00  0.00     0.013 C 
ATOM     48  H30 non d ame     -10.747  15.860  66.211  0.00  0.00     0.072 H 
BRANCH  47  49
ATOM     49  C21 non d ame     -10.302  14.103  65.065  0.00  0.00    -0.038 C 
ATOM     50  H31 non d ame     -10.561  14.807  64.274  0.00  0.00     0.036 H 
ATOM     51  H32 non d ame      -9.375  13.532  65.006  0.00  0.00     0.036 H 
BRANCH  49  52
ATOM     52  C22 non d ame     -11.447  13.070  65.123  0.00  0.00     0.018 C 
ATOM     53  H33 non d ame     -11.217  12.419  65.968  0.00  0.00     0.048 H 
ATOM     54  H34 non d ame     -12.370  13.651  65.119  0.00  0.00     0.048 H 
BRANCH  52  55
ATOM     55  C23 non d ame     -11.518  12.143  63.878  0.00  0.00     0.259 C 
ATOM     56  O7  non d ame     -12.533  12.024  63.273  0.00  0.00    -0.265 OA
BRANCH  55  57
ATOM     57  O8  non d ame     -10.357  11.426  63.475  0.00  0.00    -0.317 OA
BRANCH  57  58
ATOM     58  C29 non d ame     -10.093  10.258  64.257  0.00  0.00     0.052 C 
ATOM     59  H47 non d ame     -10.106  10.588  65.295  0.00  0.00     0.082 H 
ATOM     60  H48 non d ame     -10.805   9.507  63.916  0.00  0.00     0.082 H 
BRANCH  58  61
ATOM     61  C35 non d ame      -8.661   9.768  63.916  0.00  0.00    -0.034 A 
ATOM     62  C30 non d ame      -8.466   8.842  62.896  0.00  0.00    -0.075 A 
ATOM     63  C31 non d ame      -7.180   8.401  62.589  0.00  0.00    -0.082 A 
ATOM     64  H49 non d ame      -9.321   8.462  62.338  0.00  0.00     0.084 H 
ATOM     65  C32 non d ame      -6.085   8.888  63.309  0.00  0.00    -0.083 A 
ATOM     66  H50 non d ame      -7.031   7.677  61.789  0.00  0.00     0.083 H 
ATOM     67  C33 non d ame      -6.284   9.810  64.328  0.00  0.00    -0.082 A 
ATOM     68  H51 non d ame      -5.076   8.549  63.075  0.00  0.00     0.083 H 
ATOM     69  C34 non d ame      -7.568  10.255  64.636  0.00  0.00    -0.075 A 
ATOM     70  H52 non d ame      -5.428  10.186  64.889  0.00  0.00     0.083 H 
ATOM     71  H53 non d ame      -7.716  10.980  65.438  0.00  0.00     0.084 H 
ENDBRANCH  58  61
ENDBRANCH  57  58
ENDBRANCH  55  57
ENDBRANCH  52  55
ENDBRANCH  49  52
ENDBRANCH  47  49
BRANCH  47  72
ATOM     72  C24 non d ame      -8.722  15.220  66.620  0.00  0.00    -0.039 C 
ATOM     73  H35 non d ame      -8.448  14.544  67.430  0.00  0.00     0.036 H 
ATOM     74  H36 non d ame      -8.214  15.150  65.657  0.00  0.00     0.036 H 
BRANCH  72  75
ATOM     75  C25 non d ame      -8.509  16.713  67.159  0.00  0.00    -0.001 C 
ATOM     76  C26 non d ame      -7.320  17.456  66.299  0.00  0.00    -0.035 C 
ATOM     77  C27 non d ame      -6.420  17.983  67.163  0.00  0.00     0.085 C 
ATOM     78  H38 non d ame      -6.740  16.715  65.748  0.00  0.00     0.036 H 
ATOM     79  H39 non d ame      -7.720  18.329  65.783  0.00  0.00     0.036 H 
ATOM     80  N5  non d ame      -6.711  17.390  68.520  0.00  0.00    -0.049 N 
ATOM     81  H40 non d ame      -5.447  17.629  66.822  0.00  0.00     0.075 H 
ATOM     82  H41 non d ame      -6.634  19.051  67.190  0.00  0.00     0.075 H 
ATOM     83  C28 non d ame      -8.175  16.717  68.406  0.00  0.00     0.193 C 
ATOM     84  H42 non d ame      -6.031  16.657  68.664  0.00  0.00     0.280 HD
ATOM     85  H43 non d ame      -6.763  18.164  69.166  0.00  0.00     0.280 HD
ATOM     86  H44 non d ame      -9.045  17.207  68.844  0.00  0.00     0.129 H 
ATOM     87  H37 non d ame      -9.451  17.251  67.268  0.00  0.00     0.046 H 
BRANCH  83  88
ATOM     88  O6  non d ame      -8.157  15.402  68.964  0.00  0.00    -0.369 OA
ATOM     89  H45 non d ame      -8.984  15.237  69.421  0.00  0.00     0.212 HD
ENDBRANCH  83  88
ENDBRANCH  72  75
ENDBRANCH  47  72
ENDBRANCH  45  47
ENDBRANCH   1  43
BRANCH   1  90
ATOM     90  C16 non d ame     -12.170  15.025  70.941  0.00  0.00    -0.035 C 
ATOM     91  H21 non d ame     -11.400  14.603  71.587  0.00  0.00     0.037 H 
ATOM     92  H22 non d ame     -12.071  16.044  70.570  0.00  0.00     0.037 H 
BRANCH  90  93
ATOM     93  C17 non d ame     -13.502  14.977  71.755  0.00  0.00    -0.059 C 
ATOM     94  H23 non d ame     -14.299  15.342  71.106  0.00  0.00     0.038 H 
BRANCH  93  95
ATOM     95  C18 non d ame     -13.873  13.526  72.195  0.00  0.00    -0.073 C 
ATOM     96  H24 non d ame     -12.963  12.973  72.429  0.00  0.00     0.028 H 
ATOM     97  H25 non d ame     -14.510  13.566  73.079  0.00  0.00     0.028 H 
ATOM     98  H26 non d ame     -14.406  13.025  71.387  0.00  0.00     0.028 H 
ENDBRANCH  93  95
BRANCH  93  99
ATOM     99  C19 non d ame     -13.437  15.915  72.964  0.00  0.00    -0.073 C 
ATOM    100  H27 non d ame     -13.307  16.941  72.621  0.00  0.00     0.028 H 
ATOM    101  H28 non d ame     -14.363  15.837  73.534  0.00  0.00     0.028 H 
ATOM    102  H29 non d ame     -12.596  15.634  73.596  0.00  0.00     0.028 H 
ENDBRANCH  93  99
ENDBRANCH  90  93
ENDBRANCH   1  90
TORSDOF 26
ENDMDL
MODEL 17
REMARK VINA RESULT:      -6.2      1.961      7.489
REMARK  26 active torsions:
REMARK  status: ('A' for Active; 'I' for Inactive)
REMARK    1  A    between atoms: C2_2  and  C3_3 
REMARK    2  A    between atoms: C4_6  and  C5_7 
REMARK       I    between atoms: C5_7  and  N2_9 
REMARK    3  A    between atoms: N2_9  and  C6_10 
REMARK    4  A    between atoms: C6_10  and  C7_11 
REMARK    5  A    between atoms: C6_10  and  C8_13 
REMARK       I    between atoms: C7_11  and  N3_14 
REMARK    6  A    between atoms: N3_14  and  C9_15 
REMARK    7  A    between atoms: C9_15  and  C10_16 
REMARK    8  A    between atoms: C9_15  and  C11_18 
REMARK       I    between atoms: C10_16  and  N4_21 
REMARK    9  A    between atoms: C11_18  and  C12_19 
REMARK   10  A    between atoms: C11_18  and  C13_20 
REMARK   11  A    between atoms: N4_21  and  C14_22 
REMARK   12  A    between atoms: C14_22  and  C15_23 
REMARK   13  A    between atoms: C14_22  and  C16_25 
REMARK       I    between atoms: C15_23  and  N6_40 
REMARK   14  A    between atoms: C16_25  and  C17_26 
REMARK   15  A    between atoms: C17_26  and  C18_27 
REMARK   16  A    between atoms: C17_26  and  C19_28 
REMARK   17  A    between atoms: C20_29  and  C21_30 
REMARK   18  A    between atoms: C20_29  and  C24_33 
REMARK   19  A    between atoms: C20_29  and  N6_40 
REMARK   20  A    between atoms: C21_30  and  C22_31 
REMARK   21  A    between atoms: C22_31  and  C23_32 
REMARK   22  A    between atoms: C23_32  and  O8_43 
REMARK   23  A    between atoms: C24_33  and  C25_34 
REMARK   24  A    between atoms: C28_38  and  O6_39 
REMARK   25  A    between atoms: C29_42  and  O8_43 
REMARK   26  A    between atoms: C29_42  and  C35_49 
ROOT
ATOM      1  C14 non d ame      -6.521  11.997  68.817  0.00  0.00     0.089 C 
ATOM      2  H20 non d ame      -5.665  11.965  68.143  0.00  0.00     0.087 H 
ENDROOT
BRANCH   1   3
ATOM      3  N4  non d ame      -6.824  13.396  69.076  0.00  0.00    -0.346 N 
ATOM      4  C10 non d ame      -6.216  14.479  68.220  0.00  0.00     0.241 C 
ATOM      5  O4  non d ame      -5.482  14.198  67.330  0.00  0.00    -0.271 OA
ATOM      6  H19 non d ame      -7.449  13.613  69.840  0.00  0.00     0.163 HD
BRANCH   4   7
ATOM      7  C9  non d ame      -6.545  15.921  68.499  0.00  0.00     0.092 C 
ATOM      8  H11 non d ame      -6.141  16.542  67.699  0.00  0.00     0.088 H 
BRANCH   7   9
ATOM      9  N3  non d ame      -8.000  16.101  68.492  0.00  0.00    -0.346 N 
ATOM     10  C7  non d ame      -8.596  17.137  67.685  0.00  0.00     0.240 C 
ATOM     11  O3  non d ame      -7.918  17.837  67.036  0.00  0.00    -0.271 OA
ATOM     12  H10 non d ame      -8.597  15.506  69.049  0.00  0.00     0.163 HD
BRANCH  10  13
ATOM     13  C6  non d ame     -10.144  17.325  67.686  0.00  0.00     0.086 C 
ATOM     14  H6  non d ame     -10.651  16.656  66.990  0.00  0.00     0.086 H 
BRANCH  13  15
ATOM     15  N2  non d ame     -10.656  17.013  69.010  0.00  0.00    -0.343 N 
ATOM     16  C5  non d ame     -11.614  15.916  69.173  0.00  0.00     0.273 C 
ATOM     17  O2  non d ame     -11.967  15.294  68.233  0.00  0.00    -0.266 OA
ATOM     18  H5  non d ame     -10.351  17.551  69.808  0.00  0.00     0.163 HD
BRANCH  16  19
ATOM     19  C4  non d ame     -12.161  15.574  70.567  0.00  0.00     0.154 A 
ATOM     20  C1  non d ame     -11.622  15.975  71.831  0.00  0.00    -0.017 A 
ATOM     21  C2  non d ame     -12.485  15.405  72.793  0.00  0.00     0.077 A 
ATOM     22  H1  non d ame     -10.738  16.585  72.021  0.00  0.00     0.091 H 
ATOM     23  O1  non d ame     -13.411  14.756  72.147  0.00  0.00    -0.218 OA
ATOM     24  N1  non d ame     -13.242  14.840  70.847  0.00  0.00    -0.123 NA
BRANCH  21  25
ATOM     25  C3  non d ame     -12.358  15.529  74.304  0.00  0.00    -0.029 C 
ATOM     26  H2  non d ame     -11.594  16.270  74.546  0.00  0.00     0.036 H 
ATOM     27  H3  non d ame     -13.313  15.843  74.725  0.00  0.00     0.036 H 
ATOM     28  H4  non d ame     -12.075  14.565  74.727  0.00  0.00     0.036 H 
ENDBRANCH  21  25
ENDBRANCH  16  19
ENDBRANCH  13  15
BRANCH  13  29
ATOM     29  C8  non d ame     -10.481  18.749  67.325  0.00  0.00    -0.049 C 
ATOM     30  H7  non d ame     -10.434  18.871  66.243  0.00  0.00     0.030 H 
ATOM     31  H8  non d ame     -11.488  18.984  67.674  0.00  0.00     0.030 H 
ATOM     32  H9  non d ame      -9.767  19.422  67.797  0.00  0.00     0.030 H 
ENDBRANCH  13  29
ENDBRANCH  10  13
ENDBRANCH   7   9
BRANCH   7  33
ATOM     33  C11 non d ame      -5.981  16.323  69.893  0.00  0.00    -0.033 C 
ATOM     34  H12 non d ame      -6.702  15.999  70.644  0.00  0.00     0.042 H 
BRANCH  33  35
ATOM     35  C12 non d ame      -4.633  15.596  70.192  0.00  0.00    -0.071 C 
ATOM     36  H13 non d ame      -4.107  16.120  70.990  0.00  0.00     0.028 H 
ATOM     37  H14 non d ame      -4.833  14.571  70.502  0.00  0.00     0.028 H 
ATOM     38  H15 non d ame      -4.017  15.590  69.293  0.00  0.00     0.028 H 
ENDBRANCH  33  35
BRANCH  33  39
ATOM     39  C13 non d ame      -5.827  17.873  70.008  0.00  0.00    -0.071 C 
ATOM     40  H16 non d ame      -6.589  18.265  70.681  0.00  0.00     0.028 H 
ATOM     41  H17 non d ame      -4.838  18.113  70.400  0.00  0.00     0.028 H 
ATOM     42  H18 non d ame      -5.946  18.323  69.023  0.00  0.00     0.028 H 
ENDBRANCH  33  39
ENDBRANCH   7  33
ENDBRANCH   4   7
ENDBRANCH   1   3
BRANCH   1  43
ATOM     43  C15 non d ame      -7.780  11.323  68.199  0.00  0.00     0.240 C 
ATOM     44  O5  non d ame      -7.673  10.654  67.222  0.00  0.00    -0.271 OA
ATOM     45  N6  non d ame      -9.118  11.503  68.831  0.00  0.00    -0.355 N 
ATOM     46  H46 non d ame      -9.220  12.066  69.664  0.00  0.00     0.162 HD
BRANCH  45  47
ATOM     47  C20 non d ame     -10.304  10.855  68.232  0.00  0.00     0.013 C 
ATOM     48  H30 non d ame     -10.001  10.412  67.284  0.00  0.00     0.072 H 
BRANCH  47  49
ATOM     49  C21 non d ame     -11.377  11.895  67.997  0.00  0.00    -0.038 C 
ATOM     50  H31 non d ame     -12.302  11.454  68.370  0.00  0.00     0.036 H 
ATOM     51  H32 non d ame     -10.995  12.816  68.438  0.00  0.00     0.036 H 
BRANCH  49  52
ATOM     52  C22 non d ame     -11.606  12.191  66.499  0.00  0.00     0.018 C 
ATOM     53  H33 non d ame     -11.719  11.218  66.019  0.00  0.00     0.048 H 
ATOM     54  H34 non d ame     -12.421  12.914  66.463  0.00  0.00     0.048 H 
BRANCH  52  55
ATOM     55  C23 non d ame     -10.395  12.873  65.804  0.00  0.00     0.259 C 
ATOM     56  O7  non d ame      -9.719  13.649  66.396  0.00  0.00    -0.265 OA
BRANCH  55  57
ATOM     57  O8  non d ame     -10.110  12.569  64.444  0.00  0.00    -0.317 OA
BRANCH  57  58
ATOM     58  C29 non d ame     -10.565  11.278  64.027  0.00  0.00     0.052 C 
ATOM     59  H47 non d ame     -10.868  10.763  64.937  0.00  0.00     0.082 H 
ATOM     60  H48 non d ame     -11.294  11.464  63.237  0.00  0.00     0.082 H 
BRANCH  58  61
ATOM     61  C35 non d ame      -9.358  10.521  63.412  0.00  0.00    -0.034 A 
ATOM     62  C30 non d ame      -8.717  11.028  62.287  0.00  0.00    -0.075 A 
ATOM     63  C31 non d ame      -7.633  10.348  61.735  0.00  0.00    -0.082 A 
ATOM     64  H49 non d ame      -9.064  11.959  61.838  0.00  0.00     0.084 H 
ATOM     65  C32 non d ame      -7.192   9.154  62.311  0.00  0.00    -0.083 A 
ATOM     66  H50 non d ame      -7.132  10.749  60.854  0.00  0.00     0.083 H 
ATOM     67  C33 non d ame      -7.837   8.649  63.432  0.00  0.00    -0.082 A 
ATOM     68  H51 non d ame      -6.345   8.615  61.885  0.00  0.00     0.083 H 
ATOM     69  C34 non d ame      -8.919   9.327  63.988  0.00  0.00    -0.075 A 
ATOM     70  H52 non d ame      -7.492   7.715  63.878  0.00  0.00     0.083 H 
ATOM     71  H53 non d ame      -9.420   8.925  64.870  0.00  0.00     0.084 H 
ENDBRANCH  58  61
ENDBRANCH  57  58
ENDBRANCH  55  57
ENDBRANCH  52  55
ENDBRANCH  49  52
ENDBRANCH  47  49
BRANCH  47  72
ATOM     72  C24 non d ame     -10.835   9.779  69.176  0.00  0.00    -0.039 C 
ATOM     73  H35 non d ame     -10.480  10.060  70.167  0.00  0.00     0.036 H 
ATOM     74  H36 non d ame     -11.906   9.721  68.977  0.00  0.00     0.036 H 
BRANCH  72  75
ATOM     75  C25 non d ame     -10.215   8.340  68.842  0.00  0.00    -0.001 C 
ATOM     76  C26 non d ame     -10.273   8.066  67.222  0.00  0.00    -0.035 C 
ATOM     77  C27 non d ame     -10.853   6.862  67.003  0.00  0.00     0.085 C 
ATOM     78  H38 non d ame     -10.958   8.769  66.749  0.00  0.00     0.036 H 
ATOM     79  H39 non d ame      -9.264   7.938  66.828  0.00  0.00     0.036 H 
ATOM     80  N5  non d ame     -11.491   6.436  68.304  0.00  0.00    -0.049 N 
ATOM     81  H40 non d ame     -11.636   7.045  66.267  0.00  0.00     0.075 H 
ATOM     82  H41 non d ame     -10.034   6.182  66.771  0.00  0.00     0.075 H 
ATOM     83  C28 non d ame     -10.868   7.399  69.440  0.00  0.00     0.193 C 
ATOM     84  H42 non d ame     -12.477   6.637  68.218  0.00  0.00     0.280 HD
ATOM     85  H43 non d ame     -11.182   5.491  68.479  0.00  0.00     0.280 HD
ATOM     86  H44 non d ame     -10.102   7.028  70.122  0.00  0.00     0.129 H 
ATOM     87  H37 non d ame      -9.258   8.178  69.339  0.00  0.00     0.046 H 
BRANCH  83  88
ATOM     88  O6  non d ame     -11.907   7.911  70.276  0.00  0.00    -0.369 OA
ATOM     89  H45 non d ame     -12.085   8.825  70.042  0.00  0.00     0.212 HD
ENDBRANCH  83  88
ENDBRANCH  72  75
ENDBRANCH  47  72
ENDBRANCH  45  47
ENDBRANCH   1  43
BRANCH   1  90
ATOM     90  C16 non d ame      -6.168  11.314  70.129  0.00  0.00    -0.035 C 
ATOM     91  H21 non d ame      -5.189  11.708  70.405  0.00  0.00     0.037 H 
ATOM     92  H22 non d ame      -7.025  11.480  70.781  0.00  0.00     0.037 H 
BRANCH  90  93
ATOM     93  C17 non d ame      -6.000   9.766  70.005  0.00  0.00    -0.059 C 
ATOM     94  H23 non d ame      -6.876   9.380  69.483  0.00  0.00     0.038 H 
BRANCH  93  95
ATOM     95  C18 non d ame      -4.738   9.374  69.174  0.00  0.00    -0.073 C 
ATOM     96  H24 non d ame      -4.498   8.325  69.350  0.00  0.00     0.028 H 
ATOM     97  H25 non d ame      -4.938   9.527  68.114  0.00  0.00     0.028 H 
ATOM     98  H26 non d ame      -3.895   9.995  69.477  0.00  0.00     0.028 H 
ENDBRANCH  93  95
BRANCH  93  99
ATOM     99  C19 non d ame      -5.970   9.107  71.387  0.00  0.00    -0.073 C 
ATOM    100  H27 non d ame      -6.769   9.520  72.003  0.00  0.00     0.028 H 
ATOM    101  H28 non d ame      -6.112   8.032  71.280  0.00  0.00     0.028 H 
ATOM    102  H29 non d ame      -5.009   9.302  71.861  0.00  0.00     0.028 H 
ENDBRANCH  93  99
ENDBRANCH  90  93
ENDBRANCH   1  90
TORSDOF 26
ENDMDL
MODEL 18
REMARK VINA RESULT:      -6.2      3.318      9.649
REMARK  26 active torsions:
REMARK  status: ('A' for Active; 'I' for Inactive)
REMARK    1  A    between atoms: C2_2  and  C3_3 
REMARK    2  A    between atoms: C4_6  and  C5_7 
REMARK       I    between atoms: C5_7  and  N2_9 
REMARK    3  A    between atoms: N2_9  and  C6_10 
REMARK    4  A    between atoms: C6_10  and  C7_11 
REMARK    5  A    between atoms: C6_10  and  C8_13 
REMARK       I    between atoms: C7_11  and  N3_14 
REMARK    6  A    between atoms: N3_14  and  C9_15 
REMARK    7  A    between atoms: C9_15  and  C10_16 
REMARK    8  A    between atoms: C9_15  and  C11_18 
REMARK       I    between atoms: C10_16  and  N4_21 
REMARK    9  A    between atoms: C11_18  and  C12_19 
REMARK   10  A    between atoms: C11_18  and  C13_20 
REMARK   11  A    between atoms: N4_21  and  C14_22 
REMARK   12  A    between atoms: C14_22  and  C15_23 
REMARK   13  A    between atoms: C14_22  and  C16_25 
REMARK       I    between atoms: C15_23  and  N6_40 
REMARK   14  A    between atoms: C16_25  and  C17_26 
REMARK   15  A    between atoms: C17_26  and  C18_27 
REMARK   16  A    between atoms: C17_26  and  C19_28 
REMARK   17  A    between atoms: C20_29  and  C21_30 
REMARK   18  A    between atoms: C20_29  and  C24_33 
REMARK   19  A    between atoms: C20_29  and  N6_40 
REMARK   20  A    between atoms: C21_30  and  C22_31 
REMARK   21  A    between atoms: C22_31  and  C23_32 
REMARK   22  A    between atoms: C23_32  and  O8_43 
REMARK   23  A    between atoms: C24_33  and  C25_34 
REMARK   24  A    between atoms: C28_38  and  O6_39 
REMARK   25  A    between atoms: C29_42  and  O8_43 
REMARK   26  A    between atoms: C29_42  and  C35_49 
ROOT
ATOM      1  C14 non d ame      -7.870   8.781  63.543  0.00  0.00     0.089 C 
ATOM      2  H20 non d ame      -7.972   9.086  62.501  0.00  0.00     0.087 H 
ENDROOT
BRANCH   1   3
ATOM      3  N4  non d ame      -8.826   9.554  64.321  0.00  0.00    -0.346 N 
ATOM      4  C10 non d ame      -9.621  10.659  63.672  0.00  0.00     0.241 C 
ATOM      5  O4  non d ame      -9.472  10.909  62.521  0.00  0.00    -0.271 OA
ATOM      6  H19 non d ame      -8.936   9.327  65.300  0.00  0.00     0.163 HD
BRANCH   4   7
ATOM      7  C9  non d ame     -10.610  11.445  64.491  0.00  0.00     0.092 C 
ATOM      8  H11 non d ame     -11.254  10.755  65.036  0.00  0.00     0.088 H 
BRANCH   7   9
ATOM      9  N3  non d ame      -9.893  12.245  65.489  0.00  0.00    -0.346 N 
ATOM     10  C7  non d ame      -9.551  11.668  66.765  0.00  0.00     0.240 C 
ATOM     11  O3  non d ame      -9.847  10.562  67.008  0.00  0.00    -0.271 OA
ATOM     12  H10 non d ame      -9.633  13.201  65.295  0.00  0.00     0.163 HD
BRANCH  10  13
ATOM     13  C6  non d ame      -8.790  12.526  67.824  0.00  0.00     0.086 C 
ATOM     14  H6  non d ame      -8.339  13.421  67.396  0.00  0.00     0.086 H 
BRANCH  13  15
ATOM     15  N2  non d ame      -9.736  12.978  68.831  0.00  0.00    -0.343 N 
ATOM     16  C5  non d ame     -10.590  14.134  68.550  0.00  0.00     0.273 C 
ATOM     17  O2  non d ame     -10.507  14.695  67.513  0.00  0.00    -0.266 OA
ATOM     18  H5  non d ame      -9.799  12.495  69.715  0.00  0.00     0.163 HD
BRANCH  16  19
ATOM     19  C4  non d ame     -11.596  14.622  69.605  0.00  0.00     0.154 A 
ATOM     20  C1  non d ame     -12.150  13.866  70.686  0.00  0.00    -0.017 A 
ATOM     21  C2  non d ame     -13.012  14.764  71.355  0.00  0.00     0.077 A 
ATOM     22  H1  non d ame     -11.957  12.824  70.946  0.00  0.00     0.091 H 
ATOM     23  O1  non d ame     -12.951  15.901  70.724  0.00  0.00    -0.218 OA
ATOM     24  N1  non d ame     -12.132  15.842  69.699  0.00  0.00    -0.123 NA
BRANCH  21  25
ATOM     25  C3  non d ame     -13.853  14.458  72.586  0.00  0.00    -0.029 C 
ATOM     26  H2  non d ame     -13.801  15.298  73.281  0.00  0.00     0.036 H 
ATOM     27  H3  non d ame     -14.889  14.298  72.287  0.00  0.00     0.036 H 
ATOM     28  H4  non d ame     -13.473  13.560  73.073  0.00  0.00     0.036 H 
ENDBRANCH  21  25
ENDBRANCH  16  19
ENDBRANCH  13  15
BRANCH  13  29
ATOM     29  C8  non d ame      -7.710  11.694  68.467  0.00  0.00    -0.049 C 
ATOM     30  H7  non d ame      -6.939  11.466  67.731  0.00  0.00     0.030 H 
ATOM     31  H8  non d ame      -7.268  12.251  69.295  0.00  0.00     0.030 H 
ATOM     32  H9  non d ame      -8.140  10.766  68.841  0.00  0.00     0.030 H 
ENDBRANCH  13  29
ENDBRANCH  10  13
ENDBRANCH   7   9
BRANCH   7  33
ATOM     33  C11 non d ame     -11.422  12.391  63.558  0.00  0.00    -0.033 C 
ATOM     34  H12 non d ame     -10.862  12.496  62.629  0.00  0.00     0.042 H 
BRANCH  33  35
ATOM     35  C12 non d ame     -12.813  11.780  63.201  0.00  0.00    -0.071 C 
ATOM     36  H13 non d ame     -13.552  12.108  63.931  0.00  0.00     0.028 H 
ATOM     37  H14 non d ame     -13.112  12.113  62.207  0.00  0.00     0.028 H 
ATOM     38  H15 non d ame     -12.745  10.692  63.214  0.00  0.00     0.028 H 
ENDBRANCH  33  35
BRANCH  33  39
ATOM     39  C13 non d ame     -11.573  13.809  64.195  0.00  0.00    -0.071 C 
ATOM     40  H16 non d ame     -12.413  13.809  64.889  0.00  0.00     0.028 H 
ATOM     41  H17 non d ame     -10.659  14.067  64.730  0.00  0.00     0.028 H 
ATOM     42  H18 non d ame     -11.753  14.542  63.408  0.00  0.00     0.028 H 
ENDBRANCH  33  39
ENDBRANCH   7  33
ENDBRANCH   4   7
ENDBRANCH   1   3
BRANCH   1  43
ATOM     43  C15 non d ame      -8.174   7.269  63.745  0.00  0.00     0.240 C 
ATOM     44  O5  non d ame      -8.176   6.536  62.809  0.00  0.00    -0.271 OA
ATOM     45  N6  non d ame      -8.454   6.733  65.107  0.00  0.00    -0.355 N 
ATOM     46  H46 non d ame      -8.451   7.345  65.911  0.00  0.00     0.162 HD
BRANCH  45  47
ATOM     47  C20 non d ame      -8.740   5.292  65.283  0.00  0.00     0.013 C 
ATOM     48  H30 non d ame      -8.926   4.865  64.298  0.00  0.00     0.072 H 
BRANCH  47  49
ATOM     49  C21 non d ame      -9.962   5.128  66.157  0.00  0.00    -0.038 C 
ATOM     50  H31 non d ame     -10.572   6.014  65.981  0.00  0.00     0.036 H 
ATOM     51  H32 non d ame     -10.358   4.138  65.926  0.00  0.00     0.036 H 
BRANCH  49  52
ATOM     52  C22 non d ame      -9.626   5.121  67.664  0.00  0.00     0.018 C 
ATOM     53  H33 non d ame     -10.467   4.627  68.153  0.00  0.00     0.048 H 
ATOM     54  H34 non d ame      -8.625   4.696  67.741  0.00  0.00     0.048 H 
BRANCH  52  55
ATOM     55  C23 non d ame      -9.539   6.540  68.292  0.00  0.00     0.259 C 
ATOM     56  O7  non d ame      -8.535   7.171  68.219  0.00  0.00    -0.265 OA
BRANCH  55  57
ATOM     57  O8  non d ame     -10.671   7.073  68.970  0.00  0.00    -0.317 OA
BRANCH  57  58
ATOM     58  C29 non d ame     -10.346   7.853  70.124  0.00  0.00     0.052 C 
ATOM     59  H47 non d ame      -9.762   7.197  70.769  0.00  0.00     0.082 H 
ATOM     60  H48 non d ame      -9.905   8.774  69.742  0.00  0.00     0.082 H 
BRANCH  58  61
ATOM     61  C35 non d ame     -11.670   8.207  70.851  0.00  0.00    -0.034 A 
ATOM     62  C30 non d ame     -12.609   7.215  71.109  0.00  0.00    -0.075 A 
ATOM     63  C31 non d ame     -13.799   7.533  71.762  0.00  0.00    -0.082 A 
ATOM     64  H49 non d ame     -12.414   6.189  70.801  0.00  0.00     0.084 H 
ATOM     65  C32 non d ame     -14.049   8.851  72.155  0.00  0.00    -0.083 A 
ATOM     66  H50 non d ame     -14.533   6.753  71.965  0.00  0.00     0.083 H 
ATOM     67  C33 non d ame     -13.110   9.839  71.892  0.00  0.00    -0.082 A 
ATOM     68  H51 non d ame     -14.976   9.108  72.666  0.00  0.00     0.083 H 
ATOM     69  C34 non d ame     -11.918   9.524  71.242  0.00  0.00    -0.075 A 
ATOM     70  H52 non d ame     -13.308  10.867  72.198  0.00  0.00     0.083 H 
ATOM     71  H53 non d ame     -11.184  10.306  71.040  0.00  0.00     0.084 H 
ENDBRANCH  58  61
ENDBRANCH  57  58
ENDBRANCH  55  57
ENDBRANCH  52  55
ENDBRANCH  49  52
ENDBRANCH  47  49
BRANCH  47  72
ATOM     72  C24 non d ame      -7.545   4.606  65.942  0.00  0.00    -0.039 C 
ATOM     73  H35 non d ame      -7.835   4.453  66.982  0.00  0.00     0.036 H 
ATOM     74  H36 non d ame      -7.317   3.749  65.309  0.00  0.00     0.036 H 
BRANCH  72  75
ATOM     75  C25 non d ame      -6.249   5.548  65.947  0.00  0.00    -0.001 C 
ATOM     76  C26 non d ame      -5.175   5.029  64.816  0.00  0.00    -0.035 C 
ATOM     77  C27 non d ame      -3.960   4.888  65.399  0.00  0.00     0.085 C 
ATOM     78  H38 non d ame      -5.424   4.016  64.501  0.00  0.00     0.036 H 
ATOM     79  H39 non d ame      -5.011   5.807  64.070  0.00  0.00     0.036 H 
ATOM     80  N5  non d ame      -4.177   4.950  66.891  0.00  0.00    -0.049 N 
ATOM     81  H40 non d ame      -3.621   3.888  65.129  0.00  0.00     0.075 H 
ATOM     82  H41 non d ame      -3.386   5.761  65.088  0.00  0.00     0.075 H 
ATOM     83  C28 non d ame      -5.667   5.536  67.100  0.00  0.00     0.193 C 
ATOM     84  H42 non d ame      -4.158   3.996  67.222  0.00  0.00     0.280 HD
ATOM     85  H43 non d ame      -3.514   5.621  67.250  0.00  0.00     0.280 HD
ATOM     86  H44 non d ame      -5.817   6.571  67.409  0.00  0.00     0.129 H 
ATOM     87  H37 non d ame      -6.508   6.606  65.936  0.00  0.00     0.046 H 
BRANCH  83  88
ATOM     88  O6  non d ame      -6.378   4.746  68.055  0.00  0.00    -0.369 OA
ATOM     89  H45 non d ame      -6.362   3.826  67.783  0.00  0.00     0.212 HD
ENDBRANCH  83  88
ENDBRANCH  72  75
ENDBRANCH  47  72
ENDBRANCH  45  47
ENDBRANCH   1  43
BRANCH   1  90
ATOM     90  C16 non d ame      -6.464   9.091  64.034  0.00  0.00    -0.035 C 
ATOM     91  H21 non d ame      -6.543  10.048  64.549  0.00  0.00     0.037 H 
ATOM     92  H22 non d ame      -6.148   8.203  64.580  0.00  0.00     0.037 H 
BRANCH  90  93
ATOM     93  C17 non d ame      -5.429   9.294  62.882  0.00  0.00    -0.059 C 
ATOM     94  H23 non d ame      -5.977   9.284  61.940  0.00  0.00     0.038 H 
BRANCH  93  95
ATOM     95  C18 non d ame      -4.689  10.664  62.989  0.00  0.00    -0.073 C 
ATOM     96  H24 non d ame      -4.816  11.069  63.993  0.00  0.00     0.028 H 
ATOM     97  H25 non d ame      -3.627  10.521  62.788  0.00  0.00     0.028 H 
ATOM     98  H26 non d ame      -5.105  11.361  62.261  0.00  0.00     0.028 H 
ENDBRANCH  93  95
BRANCH  93  99
ATOM     99  C19 non d ame      -4.428   8.136  62.837  0.00  0.00    -0.073 C 
ATOM    100  H27 non d ame      -3.710   8.309  62.036  0.00  0.00     0.028 H 
ATOM    101  H28 non d ame      -3.903   8.072  63.790  0.00  0.00     0.028 H 
ATOM    102  H29 non d ame      -4.961   7.203  62.652  0.00  0.00     0.028 H 
ENDBRANCH  93  99
ENDBRANCH  90  93
ENDBRANCH   1  90
TORSDOF 26
ENDMDL
MODEL 19
REMARK VINA RESULT:      -6.2      2.711      7.559
REMARK  26 active torsions:
REMARK  status: ('A' for Active; 'I' for Inactive)
REMARK    1  A    between atoms: C2_2  and  C3_3 
REMARK    2  A    between atoms: C4_6  and  C5_7 
REMARK       I    between atoms: C5_7  and  N2_9 
REMARK    3  A    between atoms: N2_9  and  C6_10 
REMARK    4  A    between atoms: C6_10  and  C7_11 
REMARK    5  A    between atoms: C6_10  and  C8_13 
REMARK       I    between atoms: C7_11  and  N3_14 
REMARK    6  A    between atoms: N3_14  and  C9_15 
REMARK    7  A    between atoms: C9_15  and  C10_16 
REMARK    8  A    between atoms: C9_15  and  C11_18 
REMARK       I    between atoms: C10_16  and  N4_21 
REMARK    9  A    between atoms: C11_18  and  C12_19 
REMARK   10  A    between atoms: C11_18  and  C13_20 
REMARK   11  A    between atoms: N4_21  and  C14_22 
REMARK   12  A    between atoms: C14_22  and  C15_23 
REMARK   13  A    between atoms: C14_22  and  C16_25 
REMARK       I    between atoms: C15_23  and  N6_40 
REMARK   14  A    between atoms: C16_25  and  C17_26 
REMARK   15  A    between atoms: C17_26  and  C18_27 
REMARK   16  A    between atoms: C17_26  and  C19_28 
REMARK   17  A    between atoms: C20_29  and  C21_30 
REMARK   18  A    between atoms: C20_29  and  C24_33 
REMARK   19  A    between atoms: C20_29  and  N6_40 
REMARK   20  A    between atoms: C21_30  and  C22_31 
REMARK   21  A    between atoms: C22_31  and  C23_32 
REMARK   22  A    between atoms: C23_32  and  O8_43 
REMARK   23  A    between atoms: C24_33  and  C25_34 
REMARK   24  A    between atoms: C28_38  and  O6_39 
REMARK   25  A    between atoms: C29_42  and  O8_43 
REMARK   26  A    between atoms: C29_42  and  C35_49 
ROOT
ATOM      1  C14 non d ame     -10.740  14.980  66.947  0.00  0.00     0.089 C 
ATOM      2  H20 non d ame     -11.723  15.409  66.758  0.00  0.00     0.087 H 
ENDROOT
BRANCH   1   3
ATOM      3  N4  non d ame      -9.797  16.082  67.072  0.00  0.00    -0.346 N 
ATOM      4  C10 non d ame     -10.148  17.294  67.898  0.00  0.00     0.241 C 
ATOM      5  O4  non d ame     -11.197  17.360  68.451  0.00  0.00    -0.271 OA
ATOM      6  H19 non d ame      -8.911  16.006  66.592  0.00  0.00     0.163 HD
BRANCH   4   7
ATOM      7  C9  non d ame      -9.159  18.422  68.022  0.00  0.00     0.092 C 
ATOM      8  H11 non d ame      -9.349  18.967  68.947  0.00  0.00     0.088 H 
BRANCH   7   9
ATOM      9  N3  non d ame      -7.802  17.875  68.115  0.00  0.00    -0.346 N 
ATOM     10  C7  non d ame      -6.822  18.513  68.959  0.00  0.00     0.240 C 
ATOM     11  O3  non d ame      -7.109  19.470  69.570  0.00  0.00    -0.271 OA
ATOM     12  H10 non d ame      -7.540  17.052  67.592  0.00  0.00     0.163 HD
BRANCH  10  13
ATOM     13  C6  non d ame      -5.379  17.928  69.050  0.00  0.00     0.086 C 
ATOM     14  H6  non d ame      -4.811  18.335  69.887  0.00  0.00     0.086 H 
BRANCH  13  15
ATOM     15  N2  non d ame      -5.466  16.493  69.265  0.00  0.00    -0.343 N 
ATOM     16  C5  non d ame      -5.222  15.948  70.603  0.00  0.00     0.273 C 
ATOM     17  O2  non d ame      -4.955  16.672  71.498  0.00  0.00    -0.266 OA
ATOM     18  H5  non d ame      -5.692  15.881  68.494  0.00  0.00     0.163 HD
BRANCH  16  19
ATOM     19  C4  non d ame      -5.312  14.433  70.845  0.00  0.00     0.154 A 
ATOM     20  C1  non d ame      -5.096  13.391  69.888  0.00  0.00    -0.017 A 
ATOM     21  C2  non d ame      -5.298  12.191  70.606  0.00  0.00     0.077 A 
ATOM     22  H1  non d ame      -4.833  13.489  68.835  0.00  0.00     0.091 H 
ATOM     23  O1  non d ame      -5.593  12.517  71.831  0.00  0.00    -0.218 OA
ATOM     24  N1  non d ame      -5.608  13.821  71.994  0.00  0.00    -0.123 NA
BRANCH  21  25
ATOM     25  C3  non d ame      -5.188  10.778  70.050  0.00  0.00    -0.029 C 
ATOM     26  H2  non d ame      -4.285  10.695  69.443  0.00  0.00     0.036 H 
ATOM     27  H3  non d ame      -5.138  10.066  70.874  0.00  0.00     0.036 H 
ATOM     28  H4  non d ame      -6.061  10.560  69.434  0.00  0.00     0.036 H 
ENDBRANCH  21  25
ENDBRANCH  16  19
ENDBRANCH  13  15
BRANCH  13  29
ATOM     29  C8  non d ame      -4.635  18.214  67.771  0.00  0.00    -0.049 C 
ATOM     30  H7  non d ame      -5.122  17.698  66.943  0.00  0.00     0.030 H 
ATOM     31  H8  non d ame      -4.639  19.289  67.581  0.00  0.00     0.030 H 
ATOM     32  H9  non d ame      -3.608  17.865  67.862  0.00  0.00     0.030 H 
ENDBRANCH  13  29
ENDBRANCH  10  13
ENDBRANCH   7   9
BRANCH   7  33
ATOM     33  C11 non d ame      -9.261  19.342  66.770  0.00  0.00    -0.033 C 
ATOM     34  H12 non d ame     -10.016  18.915  66.110  0.00  0.00     0.042 H 
BRANCH  33  35
ATOM     35  C12 non d ame      -9.733  20.778  67.157  0.00  0.00    -0.071 C 
ATOM     36  H13 non d ame     -10.611  21.042  66.568  0.00  0.00     0.028 H 
ATOM     37  H14 non d ame      -9.984  20.805  68.217  0.00  0.00     0.028 H 
ATOM     38  H15 non d ame      -8.932  21.489  66.956  0.00  0.00     0.028 H 
ENDBRANCH  33  35
BRANCH  33  39
ATOM     39  C13 non d ame      -7.906  19.381  65.994  0.00  0.00    -0.071 C 
ATOM     40  H16 non d ame      -7.770  20.366  65.549  0.00  0.00     0.028 H 
ATOM     41  H17 non d ame      -7.086  19.176  66.682  0.00  0.00     0.028 H 
ATOM     42  H18 non d ame      -7.917  18.626  65.207  0.00  0.00     0.028 H 
ENDBRANCH  33  39
ENDBRANCH   7  33
ENDBRANCH   4   7
ENDBRANCH   1   3
BRANCH   1  43
ATOM     43  C15 non d ame     -10.704  14.146  68.259  0.00  0.00     0.240 C 
ATOM     44  O5  non d ame      -9.673  13.987  68.831  0.00  0.00    -0.271 OA
ATOM     45  N6  non d ame     -11.955  13.551  68.809  0.00  0.00    -0.355 N 
ATOM     46  H46 non d ame     -12.837  13.683  68.335  0.00  0.00     0.162 HD
BRANCH  45  47
ATOM     47  C20 non d ame     -11.904  12.762  70.058  0.00  0.00     0.013 C 
ATOM     48  H30 non d ame     -10.939  12.943  70.530  0.00  0.00     0.072 H 
BRANCH  47  49
ATOM     49  C21 non d ame     -12.050  11.293  69.729  0.00  0.00    -0.038 C 
ATOM     50  H31 non d ame     -11.350  10.773  70.383  0.00  0.00     0.036 H 
ATOM     51  H32 non d ame     -13.118  11.082  69.793  0.00  0.00     0.036 H 
BRANCH  49  52
ATOM     52  C22 non d ame     -11.627  10.959  68.282  0.00  0.00     0.018 C 
ATOM     53  H33 non d ame     -12.281  10.147  67.963  0.00  0.00     0.048 H 
ATOM     54  H34 non d ame     -11.635  11.908  67.745  0.00  0.00     0.048 H 
BRANCH  52  55
ATOM     55  C23 non d ame     -10.178  10.411  68.165  0.00  0.00     0.259 C 
ATOM     56  O7  non d ame      -9.365  10.990  67.520  0.00  0.00    -0.265 OA
BRANCH  55  57
ATOM     57  O8  non d ame      -9.835   9.199  68.826  0.00  0.00    -0.317 OA
BRANCH  57  58
ATOM     58  C29 non d ame      -8.968   9.374  69.951  0.00  0.00     0.052 C 
ATOM     59  H47 non d ame      -8.034   8.882  69.684  0.00  0.00     0.082 H 
ATOM     60  H48 non d ame      -8.978  10.442  70.168  0.00  0.00     0.082 H 
BRANCH  58  61
ATOM     61  C35 non d ame      -9.592   8.623  71.157  0.00  0.00    -0.034 A 
ATOM     62  C30 non d ame     -10.908   8.178  71.096  0.00  0.00    -0.075 A 
ATOM     63  C31 non d ame     -11.468   7.503  72.179  0.00  0.00    -0.082 A 
ATOM     64  H49 non d ame     -11.500   8.357  70.199  0.00  0.00     0.084 H 
ATOM     65  C32 non d ame     -10.707   7.276  73.329  0.00  0.00    -0.083 A 
ATOM     66  H50 non d ame     -12.499   7.154  72.127  0.00  0.00     0.083 H 
ATOM     67  C33 non d ame      -9.395   7.725  73.388  0.00  0.00    -0.082 A 
ATOM     68  H51 non d ame     -11.138   6.750  74.181  0.00  0.00     0.083 H 
ATOM     69  C34 non d ame      -8.830   8.398  72.306  0.00  0.00    -0.075 A 
ATOM     70  H52 non d ame      -8.804   7.548  74.287  0.00  0.00     0.083 H 
ATOM     71  H53 non d ame      -7.798   8.746  72.359  0.00  0.00     0.084 H 
ENDBRANCH  58  61
ENDBRANCH  57  58
ENDBRANCH  55  57
ENDBRANCH  52  55
ENDBRANCH  49  52
ENDBRANCH  47  49
BRANCH  47  72
ATOM     72  C24 non d ame     -13.038  13.191  70.987  0.00  0.00    -0.039 C 
ATOM     73  H35 non d ame     -13.956  12.875  70.491  0.00  0.00     0.036 H 
ATOM     74  H36 non d ame     -12.781  12.786  71.966  0.00  0.00     0.036 H 
BRANCH  72  75
ATOM     75  C25 non d ame     -13.108  14.785  71.138  0.00  0.00    -0.001 C 
ATOM     76  C26 non d ame     -11.755  15.337  71.892  0.00  0.00    -0.035 C 
ATOM     77  C27 non d ame     -12.124  16.128  72.927  0.00  0.00     0.085 C 
ATOM     78  H38 non d ame     -11.235  14.510  72.377  0.00  0.00     0.036 H 
ATOM     79  H39 non d ame     -11.210  16.014  71.235  0.00  0.00     0.036 H 
ATOM     80  N5  non d ame     -13.601  15.906  73.149  0.00  0.00    -0.049 N 
ATOM     81  H40 non d ame     -11.575  15.754  73.792  0.00  0.00     0.075 H 
ATOM     82  H41 non d ame     -11.968  17.150  72.582  0.00  0.00     0.075 H 
ATOM     83  C28 non d ame     -14.138  15.143  71.831  0.00  0.00     0.193 C 
ATOM     84  H42 non d ame     -13.681  15.280  73.938  0.00  0.00     0.280 HD
ATOM     85  H43 non d ame     -14.026  16.821  73.186  0.00  0.00     0.280 HD
ATOM     86  H44 non d ame     -14.709  15.681  71.074  0.00  0.00     0.129 H 
ATOM     87  H37 non d ame     -13.393  15.276  70.208  0.00  0.00     0.046 H 
BRANCH  83  88
ATOM     88  O6  non d ame     -14.951  14.030  72.204  0.00  0.00    -0.369 OA
ATOM     89  H45 non d ame     -15.668  14.331  72.767  0.00  0.00     0.212 HD
ENDBRANCH  83  88
ENDBRANCH  72  75
ENDBRANCH  47  72
ENDBRANCH  45  47
ENDBRANCH   1  43
BRANCH   1  90
ATOM     90  C16 non d ame     -10.327  14.105  65.773  0.00  0.00    -0.035 C 
ATOM     91  H21 non d ame      -9.548  14.665  65.256  0.00  0.00     0.037 H 
ATOM     92  H22 non d ame     -10.101  13.131  66.206  0.00  0.00     0.037 H 
BRANCH  90  93
ATOM     93  C17 non d ame     -11.468  13.873  64.733  0.00  0.00    -0.059 C 
ATOM     94  H23 non d ame     -11.001  13.675  63.768  0.00  0.00     0.038 H 
BRANCH  93  95
ATOM     95  C18 non d ame     -12.357  12.642  65.095  0.00  0.00    -0.073 C 
ATOM     96  H24 non d ame     -12.340  11.927  64.272  0.00  0.00     0.028 H 
ATOM     97  H25 non d ame     -11.969  12.166  65.996  0.00  0.00     0.028 H 
ATOM     98  H26 non d ame     -13.381  12.971  65.271  0.00  0.00     0.028 H 
ENDBRANCH  93  95
BRANCH  93  99
ATOM     99  C19 non d ame     -12.323  15.134  64.571  0.00  0.00    -0.073 C 
ATOM    100  H27 non d ame     -13.095  14.955  63.823  0.00  0.00     0.028 H 
ATOM    101  H28 non d ame     -12.790  15.380  65.524  0.00  0.00     0.028 H 
ATOM    102  H29 non d ame     -11.692  15.962  64.250  0.00  0.00     0.028 H 
ENDBRANCH  93  99
ENDBRANCH  90  93
ENDBRANCH   1  90
TORSDOF 26
ENDMDL
MODEL 20
REMARK VINA RESULT:      -6.0      3.371      9.257
REMARK  26 active torsions:
REMARK  status: ('A' for Active; 'I' for Inactive)
REMARK    1  A    between atoms: C2_2  and  C3_3 
REMARK    2  A    between atoms: C4_6  and  C5_7 
REMARK       I    between atoms: C5_7  and  N2_9 
REMARK    3  A    between atoms: N2_9  and  C6_10 
REMARK    4  A    between atoms: C6_10  and  C7_11 
REMARK    5  A    between atoms: C6_10  and  C8_13 
REMARK       I    between atoms: C7_11  and  N3_14 
REMARK    6  A    between atoms: N3_14  and  C9_15 
REMARK    7  A    between atoms: C9_15  and  C10_16 
REMARK    8  A    between atoms: C9_15  and  C11_18 
REMARK       I    between atoms: C10_16  and  N4_21 
REMARK    9  A    between atoms: C11_18  and  C12_19 
REMARK   10  A    between atoms: C11_18  and  C13_20 
REMARK   11  A    between atoms: N4_21  and  C14_22 
REMARK   12  A    between atoms: C14_22  and  C15_23 
REMARK   13  A    between atoms: C14_22  and  C16_25 
REMARK       I    between atoms: C15_23  and  N6_40 
REMARK   14  A    between atoms: C16_25  and  C17_26 
REMARK   15  A    between atoms: C17_26  and  C18_27 
REMARK   16  A    between atoms: C17_26  and  C19_28 
REMARK   17  A    between atoms: C20_29  and  C21_30 
REMARK   18  A    between atoms: C20_29  and  C24_33 
REMARK   19  A    between atoms: C20_29  and  N6_40 
REMARK   20  A    between atoms: C21_30  and  C22_31 
REMARK   21  A    between atoms: C22_31  and  C23_32 
REMARK   22  A    between atoms: C23_32  and  O8_43 
REMARK   23  A    between atoms: C24_33  and  C25_34 
REMARK   24  A    between atoms: C28_38  and  O6_39 
REMARK   25  A    between atoms: C29_42  and  O8_43 
REMARK   26  A    between atoms: C29_42  and  C35_49 
ROOT
ATOM      1  C14 non d ame      -8.080   8.079  63.309  0.00  0.00     0.089 C 
ATOM      2  H20 non d ame      -8.358   8.289  62.276  0.00  0.00     0.087 H 
ENDROOT
BRANCH   1   3
ATOM      3  N4  non d ame      -8.848   8.975  64.160  0.00  0.00    -0.346 N 
ATOM      4  C10 non d ame      -9.458  10.231  63.590  0.00  0.00     0.241 C 
ATOM      5  O4  non d ame      -9.316  10.500  62.443  0.00  0.00    -0.271 OA
ATOM      6  H19 non d ame      -8.955   8.730  65.135  0.00  0.00     0.163 HD
BRANCH   4   7
ATOM      7  C9  non d ame     -10.254  11.145  64.484  0.00  0.00     0.092 C 
ATOM      8  H11 non d ame     -10.979  10.555  65.046  0.00  0.00     0.088 H 
BRANCH   7   9
ATOM      9  N3  non d ame      -9.360  11.774  65.461  0.00  0.00    -0.346 N 
ATOM     10  C7  non d ame      -9.478  11.452  66.861  0.00  0.00     0.240 C 
ATOM     11  O3  non d ame     -10.290  10.689  67.221  0.00  0.00    -0.271 OA
ATOM     12  H10 non d ame      -8.656  12.436  65.165  0.00  0.00     0.163 HD
BRANCH  10  13
ATOM     13  C6  non d ame      -8.526  12.128  67.895  0.00  0.00     0.086 C 
ATOM     14  H6  non d ame      -7.559  12.394  67.467  0.00  0.00     0.086 H 
BRANCH  13  15
ATOM     15  N2  non d ame      -9.132  13.367  68.354  0.00  0.00    -0.343 N 
ATOM     16  C5  non d ame      -8.940  14.594  67.578  0.00  0.00     0.273 C 
ATOM     17  O2  non d ame      -8.295  14.575  66.588  0.00  0.00    -0.266 OA
ATOM     18  H5  non d ame      -9.680  13.375  69.202  0.00  0.00     0.163 HD
BRANCH  16  19
ATOM     19  C4  non d ame      -9.578  15.911  68.050  0.00  0.00     0.154 A 
ATOM     20  C1  non d ame      -9.184  17.239  67.691  0.00  0.00    -0.017 A 
ATOM     21  C2  non d ame     -10.078  18.084  68.386  0.00  0.00     0.077 A 
ATOM     22  H1  non d ame      -8.373  17.544  67.029  0.00  0.00     0.091 H 
ATOM     23  O1  non d ame     -10.888  17.320  69.060  0.00  0.00    -0.218 OA
ATOM     24  N1  non d ame     -10.615  16.048  68.881  0.00  0.00    -0.123 NA
BRANCH  21  25
ATOM     25  C3  non d ame     -10.093  19.606  68.350  0.00  0.00    -0.029 C 
ATOM     26  H2  non d ame      -9.471  19.957  67.526  0.00  0.00     0.036 H 
ATOM     27  H3  non d ame     -11.116  19.955  68.206  0.00  0.00     0.036 H 
ATOM     28  H4  non d ame      -9.705  19.997  69.290  0.00  0.00     0.036 H 
ENDBRANCH  21  25
ENDBRANCH  16  19
ENDBRANCH  13  15
BRANCH  13  29
ATOM     29  C8  non d ame      -8.304  11.199  69.061  0.00  0.00    -0.049 C 
ATOM     30  H7  non d ame      -8.297  10.168  68.709  0.00  0.00     0.030 H 
ATOM     31  H8  non d ame      -7.346  11.429  69.531  0.00  0.00     0.030 H 
ATOM     32  H9  non d ame      -9.105  11.329  69.787  0.00  0.00     0.030 H 
ENDBRANCH  13  29
ENDBRANCH  10  13
ENDBRANCH   7   9
BRANCH   7  33
ATOM     33  C11 non d ame     -10.937  12.247  63.624  0.00  0.00    -0.033 C 
ATOM     34  H12 non d ame     -10.354  12.359  62.710  0.00  0.00     0.042 H 
BRANCH  33  35
ATOM     35  C12 non d ame     -12.383  11.830  63.209  0.00  0.00    -0.071 C 
ATOM     36  H13 non d ame     -12.991  12.723  63.064  0.00  0.00     0.028 H 
ATOM     37  H14 non d ame     -12.345  11.262  62.280  0.00  0.00     0.028 H 
ATOM     38  H15 non d ame     -12.821  11.214  63.993  0.00  0.00     0.028 H 
ENDBRANCH  33  35
BRANCH  33  39
ATOM     39  C13 non d ame     -10.936  13.620  64.370  0.00  0.00    -0.071 C 
ATOM     40  H16 non d ame     -11.521  14.342  63.802  0.00  0.00     0.028 H 
ATOM     41  H17 non d ame     -11.372  13.496  65.361  0.00  0.00     0.028 H 
ATOM     42  H18 non d ame      -9.911  13.978  64.466  0.00  0.00     0.028 H 
ENDBRANCH  33  39
ENDBRANCH   7  33
ENDBRANCH   4   7
ENDBRANCH   1   3
BRANCH   1  43
ATOM     43  C15 non d ame      -8.401   6.613  63.717  0.00  0.00     0.240 C 
ATOM     44  O5  non d ame      -8.239   5.732  62.935  0.00  0.00    -0.271 OA
ATOM     45  N6  non d ame      -8.903   6.304  65.086  0.00  0.00    -0.355 N 
ATOM     46  H46 non d ame      -9.041   7.043  65.761  0.00  0.00     0.162 HD
BRANCH  45  47
ATOM     47  C20 non d ame      -9.202   4.905  65.459  0.00  0.00     0.013 C 
ATOM     48  H30 non d ame      -9.372   4.342  64.541  0.00  0.00     0.072 H 
BRANCH  47  49
ATOM     49  C21 non d ame     -10.444   4.871  66.322  0.00  0.00    -0.038 C 
ATOM     50  H31 non d ame     -11.248   4.532  65.668  0.00  0.00     0.036 H 
ATOM     51  H32 non d ame     -10.174   4.287  67.203  0.00  0.00     0.036 H 
BRANCH  49  52
ATOM     52  C22 non d ame     -10.856   6.268  66.834  0.00  0.00     0.018 C 
ATOM     53  H33 non d ame     -10.592   6.965  66.038  0.00  0.00     0.048 H 
ATOM     54  H34 non d ame     -11.895   6.172  67.152  0.00  0.00     0.048 H 
BRANCH  52  55
ATOM     55  C23 non d ame     -10.065   6.733  68.088  0.00  0.00     0.259 C 
ATOM     56  O7  non d ame      -9.324   7.659  68.024  0.00  0.00    -0.265 OA
BRANCH  55  57
ATOM     57  O8  non d ame     -10.224   6.029  69.313  0.00  0.00    -0.317 OA
BRANCH  57  58
ATOM     58  C29 non d ame      -9.905   6.800  70.475  0.00  0.00     0.052 C 
ATOM     59  H47 non d ame      -9.671   6.076  71.255  0.00  0.00     0.082 H 
ATOM     60  H48 non d ame      -9.150   7.518  70.154  0.00  0.00     0.082 H 
BRANCH  58  61
ATOM     61  C35 non d ame     -11.178   7.581  70.895  0.00  0.00    -0.034 A 
ATOM     62  C30 non d ame     -11.121   8.959  71.078  0.00  0.00    -0.075 A 
ATOM     63  C31 non d ame     -12.264   9.661  71.455  0.00  0.00    -0.082 A 
ATOM     64  H49 non d ame     -10.181   9.488  70.925  0.00  0.00     0.084 H 
ATOM     65  C32 non d ame     -13.468   8.980  71.653  0.00  0.00    -0.083 A 
ATOM     66  H50 non d ame     -12.217  10.741  71.595  0.00  0.00     0.083 H 
ATOM     67  C33 non d ame     -13.520   7.604  71.473  0.00  0.00    -0.082 A 
ATOM     68  H51 non d ame     -14.367   9.521  71.948  0.00  0.00     0.083 H 
ATOM     69  C34 non d ame     -12.380   6.899  71.093  0.00  0.00    -0.075 A 
ATOM     70  H52 non d ame     -14.460   7.075  71.630  0.00  0.00     0.083 H 
ATOM     71  H53 non d ame     -12.429   5.818  70.953  0.00  0.00     0.084 H 
ENDBRANCH  58  61
ENDBRANCH  57  58
ENDBRANCH  55  57
ENDBRANCH  52  55
ENDBRANCH  49  52
ENDBRANCH  47  49
BRANCH  47  72
ATOM     72  C24 non d ame      -8.027   4.314  66.235  0.00  0.00    -0.039 C 
ATOM     73  H35 non d ame      -8.435   4.021  67.202  0.00  0.00     0.036 H 
ATOM     74  H36 non d ame      -7.592   3.562  65.576  0.00  0.00     0.036 H 
BRANCH  72  75
ATOM     75  C25 non d ame      -6.891   5.410  66.514  0.00  0.00    -0.001 C 
ATOM     76  C26 non d ame      -5.525   5.026  65.683  0.00  0.00    -0.035 C 
ATOM     77  C27 non d ame      -4.476   5.038  66.539  0.00  0.00     0.085 C 
ATOM     78  H38 non d ame      -5.570   3.989  65.350  0.00  0.00     0.036 H 
ATOM     79  H39 non d ame      -5.285   5.817  64.972  0.00  0.00     0.036 H 
ATOM     80  N5  non d ame      -5.045   5.075  67.936  0.00  0.00    -0.049 N 
ATOM     81  H40 non d ame      -3.965   4.087  66.388  0.00  0.00     0.075 H 
ATOM     82  H41 non d ame      -3.953   5.975  66.344  0.00  0.00     0.075 H 
ATOM     83  C28 non d ame      -6.602   5.473  67.771  0.00  0.00     0.193 C 
ATOM     84  H42 non d ame      -4.991   4.132  68.292  0.00  0.00     0.280 HD
ATOM     85  H43 non d ame      -4.572   5.825  68.419  0.00  0.00     0.280 HD
ATOM     86  H44 non d ame      -6.943   6.482  68.004  0.00  0.00     0.129 H 
ATOM     87  H37 non d ame      -7.266   6.428  66.409  0.00  0.00     0.046 H 
BRANCH  83  88
ATOM     88  O6  non d ame      -7.418   4.603  68.557  0.00  0.00    -0.369 OA
ATOM     89  H45 non d ame      -7.810   5.098  69.279  0.00  0.00     0.212 HD
ENDBRANCH  83  88
ENDBRANCH  72  75
ENDBRANCH  47  72
ENDBRANCH  45  47
ENDBRANCH   1  43
BRANCH   1  90
ATOM     90  C16 non d ame      -6.597   8.352  63.509  0.00  0.00    -0.035 C 
ATOM     91  H21 non d ame      -6.177   7.412  63.867  0.00  0.00     0.037 H 
ATOM     92  H22 non d ame      -6.253   8.779  62.567  0.00  0.00     0.037 H 
BRANCH  90  93
ATOM     93  C17 non d ame      -6.300   9.416  64.612  0.00  0.00    -0.059 C 
ATOM     94  H23 non d ame      -7.250   9.863  64.905  0.00  0.00     0.038 H 
BRANCH  93  95
ATOM     95  C18 non d ame      -5.658   8.782  65.886  0.00  0.00    -0.073 C 
ATOM     96  H24 non d ame      -5.854   7.709  65.896  0.00  0.00     0.028 H 
ATOM     97  H25 non d ame      -4.582   8.954  65.876  0.00  0.00     0.028 H 
ATOM     98  H26 non d ame      -6.090   9.239  66.777  0.00  0.00     0.028 H 
ENDBRANCH  93  95
BRANCH  93  99
ATOM     99  C19 non d ame      -5.420  10.542  64.061  0.00  0.00    -0.073 C 
ATOM    100  H27 non d ame      -5.963  11.486  64.114  0.00  0.00     0.028 H 
ATOM    101  H28 non d ame      -4.508  10.614  64.654  0.00  0.00     0.028 H 
ATOM    102  H29 non d ame      -5.163  10.328  63.024  0.00  0.00     0.028 H 
ENDBRANCH  93  99
ENDBRANCH  90  93
ENDBRANCH   1  90
TORSDOF 26
ENDMDL
