MODEL 1
REMARK VINA RESULT:      -7.2      0.000      0.000
REMARK  26 active torsions:
REMARK  status: ('A' for Active; 'I' for Inactive)
REMARK    1  A    between atoms: C2_2  and  C3_3 
REMARK    2  A    between atoms: C4_6  and  C5_7 
REMARK       I    between atoms: C5_7  and  N2_9 
REMARK    3  A    between atoms: N2_9  and  C6_10 
REMARK    4  A    between atoms: C6_10  and  C7_11 
REMARK    5  A    between atoms: C6_10  and  C8_13 
REMARK       I    between atoms: C7_11  and  N3_14 
REMARK    6  A    between atoms: N3_14  and  C9_15 
REMARK    7  A    between atoms: C9_15  and  C10_16 
REMARK    8  A    between atoms: C9_15  and  C11_18 
REMARK       I    between atoms: C10_16  and  N4_21 
REMARK    9  A    between atoms: C11_18  and  C12_19 
REMARK   10  A    between atoms: C11_18  and  C13_20 
REMARK   11  A    between atoms: N4_21  and  C14_22 
REMARK   12  A    between atoms: C14_22  and  C15_23 
REMARK   13  A    between atoms: C14_22  and  C16_25 
REMARK       I    between atoms: C15_23  and  N6_40 
REMARK   14  A    between atoms: C16_25  and  C17_26 
REMARK   15  A    between atoms: C17_26  and  C18_27 
REMARK   16  A    between atoms: C17_26  and  C19_28 
REMARK   17  A    between atoms: C20_29  and  C21_30 
REMARK   18  A    between atoms: C20_29  and  C24_33 
REMARK   19  A    between atoms: C20_29  and  N6_40 
REMARK   20  A    between atoms: C21_30  and  C22_31 
REMARK   21  A    between atoms: C22_31  and  C23_32 
REMARK   22  A    between atoms: C23_32  and  O8_43 
REMARK   23  A    between atoms: C24_33  and  C25_34 
REMARK   24  A    between atoms: C28_38  and  O6_39 
REMARK   25  A    between atoms: C29_42  and  O8_43 
REMARK   26  A    between atoms: C29_42  and  C35_49 
ROOT
ATOM      1  C14 non d ame     -10.332  10.405  68.628  0.00  0.00     0.089 C 
ATOM      2  H20 non d ame      -9.493  10.475  69.319  0.00  0.00     0.087 H 
ENDROOT
BRANCH   1   3
ATOM      3  N4  non d ame     -10.875   9.058  68.732  0.00  0.00    -0.346 N 
ATOM      4  C10 non d ame     -10.040   7.944  69.311  0.00  0.00     0.241 C 
ATOM      5  O4  non d ame      -8.932   8.155  69.684  0.00  0.00    -0.271 OA
ATOM      6  H19 non d ame     -11.818   8.899  68.407  0.00  0.00     0.163 HD
BRANCH   4   7
ATOM      7  C9  non d ame     -10.618   6.557  69.417  0.00  0.00     0.092 C 
ATOM      8  H11 non d ame     -11.683   6.594  69.187  0.00  0.00     0.088 H 
BRANCH   7   9
ATOM      9  N3  non d ame      -9.990   5.688  68.417  0.00  0.00    -0.346 N 
ATOM     10  C7  non d ame     -10.324   5.834  67.022  0.00  0.00     0.240 C 
ATOM     11  O3  non d ame     -11.098   6.645  66.686  0.00  0.00    -0.271 OA
ATOM     12  H10 non d ame      -9.322   4.982  68.693  0.00  0.00     0.163 HD
BRANCH  10  13
ATOM     13  C6  non d ame      -9.654   4.903  65.965  0.00  0.00     0.086 C 
ATOM     14  H6  non d ame     -10.275   4.753  65.081  0.00  0.00     0.086 H 
BRANCH  13  15
ATOM     15  N2  non d ame      -8.421   5.521  65.506  0.00  0.00    -0.343 N 
ATOM     16  C5  non d ame      -8.111   5.536  64.075  0.00  0.00     0.273 C 
ATOM     17  O2  non d ame      -8.859   5.046  63.301  0.00  0.00    -0.266 OA
ATOM     18  H5  non d ame      -7.787   5.935  66.174  0.00  0.00     0.163 HD
BRANCH  16  19
ATOM     19  C4  non d ame      -6.812   6.188  63.575  0.00  0.00     0.154 A 
ATOM     20  C1  non d ame      -6.499   7.585  63.553  0.00  0.00    -0.017 A 
ATOM     21  C2  non d ame      -5.198   7.657  63.007  0.00  0.00     0.077 A 
ATOM     22  H1  non d ame      -7.120   8.418  63.883  0.00  0.00     0.091 H 
ATOM     23  O1  non d ame      -4.817   6.439  62.750  0.00  0.00    -0.218 OA
ATOM     24  N1  non d ame      -5.743   5.565  63.072  0.00  0.00    -0.123 NA
BRANCH  21  25
ATOM     25  C3  non d ame      -4.391   8.925  62.766  0.00  0.00    -0.029 C 
ATOM     26  H2  non d ame      -4.770   9.436  61.879  0.00  0.00     0.036 H 
ATOM     27  H3  non d ame      -4.483   9.583  63.630  0.00  0.00     0.036 H 
ATOM     28  H4  non d ame      -3.343   8.667  62.616  0.00  0.00     0.036 H 
ENDBRANCH  21  25
ENDBRANCH  16  19
ENDBRANCH  13  15
BRANCH  13  29
ATOM     29  C8  non d ame      -9.358   3.562  66.586  0.00  0.00    -0.049 C 
ATOM     30  H7  non d ame      -9.123   2.841  65.802  0.00  0.00     0.030 H 
ATOM     31  H8  non d ame      -8.507   3.654  67.262  0.00  0.00     0.030 H 
ATOM     32  H9  non d ame     -10.229   3.219  67.143  0.00  0.00     0.030 H 
ENDBRANCH  13  29
ENDBRANCH  10  13
ENDBRANCH   7   9
BRANCH   7  33
ATOM     33  C11 non d ame     -10.347   5.988  70.840  0.00  0.00    -0.033 C 
ATOM     34  H12 non d ame      -9.522   6.558  71.270  0.00  0.00     0.042 H 
BRANCH  33  35
ATOM     35  C12 non d ame     -11.583   6.178  71.774  0.00  0.00    -0.071 C 
ATOM     36  H13 non d ame     -12.329   6.792  71.268  0.00  0.00     0.028 H 
ATOM     37  H14 non d ame     -12.013   5.205  72.009  0.00  0.00     0.028 H 
ATOM     38  H15 non d ame     -11.270   6.669  72.694  0.00  0.00     0.028 H 
ENDBRANCH  33  35
BRANCH  33  39
ATOM     39  C13 non d ame      -9.915   4.489  70.770  0.00  0.00    -0.071 C 
ATOM     40  H16 non d ame      -9.166   4.290  71.536  0.00  0.00     0.028 H 
ATOM     41  H17 non d ame     -10.784   3.852  70.935  0.00  0.00     0.028 H 
ATOM     42  H18 non d ame      -9.492   4.279  69.787  0.00  0.00     0.028 H 
ENDBRANCH  33  39
ENDBRANCH   7  33
ENDBRANCH   4   7
ENDBRANCH   1   3
BRANCH   1  43
ATOM     43  C15 non d ame     -11.461  11.420  68.968  0.00  0.00     0.240 C 
ATOM     44  O5  non d ame     -12.588  11.049  69.044  0.00  0.00    -0.271 OA
ATOM     45  N6  non d ame     -11.136  12.855  69.209  0.00  0.00    -0.355 N 
ATOM     46  H46 non d ame     -10.182  13.182  69.151  0.00  0.00     0.162 HD
BRANCH  45  47
ATOM     47  C20 non d ame     -12.220  13.808  69.532  0.00  0.00     0.013 C 
ATOM     48  H30 non d ame     -13.136  13.444  69.066  0.00  0.00     0.072 H 
BRANCH  47  49
ATOM     49  C21 non d ame     -11.868  15.172  68.983  0.00  0.00    -0.038 C 
ATOM     50  H31 non d ame     -12.313  15.213  67.988  0.00  0.00     0.036 H 
ATOM     51  H32 non d ame     -12.175  15.885  69.748  0.00  0.00     0.036 H 
BRANCH  49  52
ATOM     52  C22 non d ame     -10.348  15.367  68.790  0.00  0.00     0.018 C 
ATOM     53  H33 non d ame     -10.005  15.906  69.674  0.00  0.00     0.048 H 
ATOM     54  H34 non d ame      -9.949  14.377  68.567  0.00  0.00     0.048 H 
BRANCH  52  55
ATOM     55  C23 non d ame      -9.981  16.262  67.574  0.00  0.00     0.259 C 
ATOM     56  O7  non d ame      -9.673  17.398  67.734  0.00  0.00    -0.265 OA
BRANCH  55  57
ATOM     57  O8  non d ame     -10.032  15.712  66.263  0.00  0.00    -0.317 OA
BRANCH  57  58
ATOM     58  C29 non d ame      -9.510  14.384  66.167  0.00  0.00     0.052 C 
ATOM     59  H47 non d ame      -8.573  14.473  65.618  0.00  0.00     0.082 H 
ATOM     60  H48 non d ame      -9.509  13.993  67.185  0.00  0.00     0.082 H 
BRANCH  58  61
ATOM     61  C35 non d ame     -10.499  13.541  65.319  0.00  0.00    -0.034 A 
ATOM     62  C30 non d ame     -11.848  13.505  65.654  0.00  0.00    -0.075 A 
ATOM     63  C31 non d ame     -12.737  12.747  64.893  0.00  0.00    -0.082 A 
ATOM     64  H49 non d ame     -12.209  14.069  66.513  0.00  0.00     0.084 H 
ATOM     65  C32 non d ame     -12.270  12.022  63.793  0.00  0.00    -0.083 A 
ATOM     66  H50 non d ame     -13.793  12.722  65.157  0.00  0.00     0.083 H 
ATOM     67  C33 non d ame     -10.922  12.058  63.463  0.00  0.00    -0.082 A 
ATOM     68  H51 non d ame     -12.958  11.427  63.192  0.00  0.00     0.083 H 
ATOM     69  C34 non d ame     -10.031  12.816  64.221  0.00  0.00    -0.075 A 
ATOM     70  H52 non d ame     -10.561  11.490  62.606  0.00  0.00     0.083 H 
ATOM     71  H53 non d ame      -8.973  12.841  63.955  0.00  0.00     0.084 H 
ENDBRANCH  58  61
ENDBRANCH  57  58
ENDBRANCH  55  57
ENDBRANCH  52  55
ENDBRANCH  49  52
ENDBRANCH  47  49
BRANCH  47  72
ATOM     72  C24 non d ame     -12.393  13.897  71.046  0.00  0.00    -0.039 C 
ATOM     73  H35 non d ame     -13.160  13.163  71.295  0.00  0.00     0.036 H 
ATOM     74  H36 non d ame     -11.390  13.798  71.461  0.00  0.00     0.036 H 
BRANCH  72  75
ATOM     75  C25 non d ame     -12.949  15.331  71.496  0.00  0.00    -0.001 C 
ATOM     76  C26 non d ame     -11.808  16.126  72.372  0.00  0.00    -0.035 C 
ATOM     77  C27 non d ame     -12.365  16.555  73.529  0.00  0.00     0.085 C 
ATOM     78  H38 non d ame     -11.038  15.428  72.703  0.00  0.00     0.036 H 
ATOM     79  H39 non d ame     -11.524  17.050  71.867  0.00  0.00     0.036 H 
ATOM     80  N5  non d ame     -13.690  15.846  73.670  0.00  0.00    -0.049 N 
ATOM     81  H40 non d ame     -11.695  16.216  74.319  0.00  0.00     0.075 H 
ATOM     82  H41 non d ame     -12.546  17.620  73.387  0.00  0.00     0.075 H 
ATOM     83  C28 non d ame     -14.013  15.214  72.219  0.00  0.00     0.193 C 
ATOM     84  H42 non d ame     -13.543  15.090  74.324  0.00  0.00     0.280 HD
ATOM     85  H43 non d ame     -14.377  16.559  73.870  0.00  0.00     0.280 HD
ATOM     86  H44 non d ame     -14.751  15.679  71.565  0.00  0.00     0.129 H 
ATOM     87  H37 non d ame     -13.407  15.874  70.668  0.00  0.00     0.046 H 
BRANCH  83  88
ATOM     88  O6  non d ame     -14.426  13.854  72.356  0.00  0.00    -0.369 OA
ATOM     89  H45 non d ame     -14.579  13.657  73.282  0.00  0.00     0.212 HD
ENDBRANCH  83  88
ENDBRANCH  72  75
ENDBRANCH  47  72
ENDBRANCH  45  47
ENDBRANCH   1  43
BRANCH   1  90
ATOM     90  C16 non d ame      -9.848  10.636  67.205  0.00  0.00    -0.035 C 
ATOM     91  H21 non d ame     -10.053   9.705  66.676  0.00  0.00     0.037 H 
ATOM     92  H22 non d ame     -10.327  11.561  66.885  0.00  0.00     0.037 H 
BRANCH  90  93
ATOM     93  C17 non d ame      -8.309  10.875  67.098  0.00  0.00    -0.059 C 
ATOM     94  H23 non d ame      -8.143  11.614  66.314  0.00  0.00     0.038 H 
BRANCH  93  95
ATOM     95  C18 non d ame      -7.706  11.441  68.423  0.00  0.00    -0.073 C 
ATOM     96  H24 non d ame      -8.473  11.998  68.962  0.00  0.00     0.028 H 
ATOM     97  H25 non d ame      -7.353  10.617  69.043  0.00  0.00     0.028 H 
ATOM     98  H26 non d ame      -6.872  12.103  68.190  0.00  0.00     0.028 H 
ENDBRANCH  93  95
BRANCH  93  99
ATOM     99  C19 non d ame      -7.586   9.594  66.674  0.00  0.00    -0.073 C 
ATOM    100  H27 non d ame      -7.376   9.633  65.605  0.00  0.00     0.028 H 
ATOM    101  H28 non d ame      -6.650   9.505  67.226  0.00  0.00     0.028 H 
ATOM    102  H29 non d ame      -8.217   8.732  66.889  0.00  0.00     0.028 H 
ENDBRANCH  93  99
ENDBRANCH  90  93
ENDBRANCH   1  90
TORSDOF 26
ENDMDL
MODEL 2
REMARK VINA RESULT:      -7.2      3.560      6.985
REMARK  26 active torsions:
REMARK  status: ('A' for Active; 'I' for Inactive)
REMARK    1  A    between atoms: C2_2  and  C3_3 
REMARK    2  A    between atoms: C4_6  and  C5_7 
REMARK       I    between atoms: C5_7  and  N2_9 
REMARK    3  A    between atoms: N2_9  and  C6_10 
REMARK    4  A    between atoms: C6_10  and  C7_11 
REMARK    5  A    between atoms: C6_10  and  C8_13 
REMARK       I    between atoms: C7_11  and  N3_14 
REMARK    6  A    between atoms: N3_14  and  C9_15 
REMARK    7  A    between atoms: C9_15  and  C10_16 
REMARK    8  A    between atoms: C9_15  and  C11_18 
REMARK       I    between atoms: C10_16  and  N4_21 
REMARK    9  A    between atoms: C11_18  and  C12_19 
REMARK   10  A    between atoms: C11_18  and  C13_20 
REMARK   11  A    between atoms: N4_21  and  C14_22 
REMARK   12  A    between atoms: C14_22  and  C15_23 
REMARK   13  A    between atoms: C14_22  and  C16_25 
REMARK       I    between atoms: C15_23  and  N6_40 
REMARK   14  A    between atoms: C16_25  and  C17_26 
REMARK   15  A    between atoms: C17_26  and  C18_27 
REMARK   16  A    between atoms: C17_26  and  C19_28 
REMARK   17  A    between atoms: C20_29  and  C21_30 
REMARK   18  A    between atoms: C20_29  and  C24_33 
REMARK   19  A    between atoms: C20_29  and  N6_40 
REMARK   20  A    between atoms: C21_30  and  C22_31 
REMARK   21  A    between atoms: C22_31  and  C23_32 
REMARK   22  A    between atoms: C23_32  and  O8_43 
REMARK   23  A    between atoms: C24_33  and  C25_34 
REMARK   24  A    between atoms: C28_38  and  O6_39 
REMARK   25  A    between atoms: C29_42  and  O8_43 
REMARK   26  A    between atoms: C29_42  and  C35_49 
ROOT
ATOM      1  C14 non d ame     -11.784  14.207  69.899  0.00  0.00     0.089 C 
ATOM      2  H20 non d ame     -12.781  13.806  69.715  0.00  0.00     0.087 H 
ENDROOT
BRANCH   1   3
ATOM      3  N4  non d ame     -10.832  13.123  69.709  0.00  0.00    -0.346 N 
ATOM      4  C10 non d ame     -11.118  12.023  68.717  0.00  0.00     0.241 C 
ATOM      5  O4  non d ame     -12.123  12.031  68.085  0.00  0.00    -0.271 OA
ATOM      6  H19 non d ame      -9.985  13.133  70.259  0.00  0.00     0.163 HD
BRANCH   4   7
ATOM      7  C9  non d ame     -10.119  10.912  68.530  0.00  0.00     0.092 C 
ATOM      8  H11 non d ame      -9.940  10.766  67.465  0.00  0.00     0.088 H 
BRANCH   7   9
ATOM      9  N3  non d ame      -8.840  11.296  69.135  0.00  0.00    -0.346 N 
ATOM     10  C7  non d ame      -7.629  11.246  68.354  0.00  0.00     0.240 C 
ATOM     11  O3  non d ame      -7.665  10.898  67.237  0.00  0.00    -0.271 OA
ATOM     12  H10 non d ame      -8.794  11.597  70.098  0.00  0.00     0.163 HD
BRANCH  10  13
ATOM     13  C6  non d ame      -6.271  11.653  69.005  0.00  0.00     0.086 C 
ATOM     14  H6  non d ame      -5.409  11.301  68.438  0.00  0.00     0.086 H 
BRANCH  13  15
ATOM     15  N2  non d ame      -6.181  13.104  69.040  0.00  0.00    -0.343 N 
ATOM     16  C5  non d ame      -5.403  13.803  68.014  0.00  0.00     0.273 C 
ATOM     17  O2  non d ame      -4.852  13.189  67.168  0.00  0.00    -0.266 OA
ATOM     18  H5  non d ame      -6.654  13.620  69.767  0.00  0.00     0.163 HD
BRANCH  16  19
ATOM     19  C4  non d ame      -5.301  15.336  68.037  0.00  0.00     0.154 A 
ATOM     20  C1  non d ame      -5.366  16.189  69.184  0.00  0.00    -0.017 A 
ATOM     21  C2  non d ame      -5.222  17.498  68.672  0.00  0.00     0.077 A 
ATOM     22  H1  non d ame      -5.497  15.903  70.228  0.00  0.00     0.091 H 
ATOM     23  O1  non d ame      -5.089  17.397  67.381  0.00  0.00    -0.218 OA
ATOM     24  N1  non d ame      -5.133  16.145  66.987  0.00  0.00    -0.123 NA
BRANCH  21  25
ATOM     25  C3  non d ame      -5.220  18.788  69.481  0.00  0.00    -0.029 C 
ATOM     26  H2  non d ame      -4.467  19.468  69.082  0.00  0.00     0.036 H 
ATOM     27  H3  non d ame      -6.202  19.257  69.419  0.00  0.00     0.036 H 
ATOM     28  H4  non d ame      -4.992  18.564  70.524  0.00  0.00     0.036 H 
ENDBRANCH  21  25
ENDBRANCH  16  19
ENDBRANCH  13  15
BRANCH  13  29
ATOM     29  C8  non d ame      -6.194  11.098  70.404  0.00  0.00    -0.049 C 
ATOM     30  H7  non d ame      -5.632  11.785  71.038  0.00  0.00     0.030 H 
ATOM     31  H8  non d ame      -7.203  10.978  70.803  0.00  0.00     0.030 H 
ATOM     32  H9  non d ame      -5.694  10.131  70.385  0.00  0.00     0.030 H 
ENDBRANCH  13  29
ENDBRANCH  10  13
ENDBRANCH   7   9
BRANCH   7  33
ATOM     33  C11 non d ame     -10.648   9.618  69.216  0.00  0.00    -0.033 C 
ATOM     34  H12 non d ame     -11.724   9.731  69.346  0.00  0.00     0.042 H 
BRANCH  33  35
ATOM     35  C12 non d ame     -10.413   8.362  68.320  0.00  0.00    -0.071 C 
ATOM     36  H13 non d ame      -9.571   7.790  68.709  0.00  0.00     0.028 H 
ATOM     37  H14 non d ame     -11.307   7.740  68.324  0.00  0.00     0.028 H 
ATOM     38  H15 non d ame     -10.197   8.680  67.300  0.00  0.00     0.028 H 
ENDBRANCH  33  35
BRANCH  33  39
ATOM     39  C13 non d ame     -10.006   9.433  70.629  0.00  0.00    -0.071 C 
ATOM     40  H16 non d ame      -9.218  10.172  70.769  0.00  0.00     0.028 H 
ATOM     41  H17 non d ame     -10.770   9.566  71.395  0.00  0.00     0.028 H 
ATOM     42  H18 non d ame      -9.584   8.432  70.707  0.00  0.00     0.028 H 
ENDBRANCH  33  39
ENDBRANCH   7  33
ENDBRANCH   4   7
ENDBRANCH   1   3
BRANCH   1  43
ATOM     43  C15 non d ame     -11.424  15.359  68.918  0.00  0.00     0.240 C 
ATOM     44  O5  non d ame     -12.106  16.333  68.874  0.00  0.00    -0.271 OA
ATOM     45  N6  non d ame     -10.226  15.253  68.038  0.00  0.00    -0.355 N 
ATOM     46  H46 non d ame      -9.637  14.433  68.069  0.00  0.00     0.162 HD
BRANCH  45  47
ATOM     47  C20 non d ame      -9.896  16.358  67.112  0.00  0.00     0.013 C 
ATOM     48  H30 non d ame     -10.710  17.082  67.151  0.00  0.00     0.072 H 
BRANCH  47  49
ATOM     49  C21 non d ame      -9.760  15.811  65.709  0.00  0.00    -0.038 C 
ATOM     50  H31 non d ame      -8.914  16.338  65.267  0.00  0.00     0.036 H 
ATOM     51  H32 non d ame      -9.730  14.726  65.819  0.00  0.00     0.036 H 
BRANCH  49  52
ATOM     52  C22 non d ame     -10.983  16.125  64.821  0.00  0.00     0.018 C 
ATOM     53  H33 non d ame     -11.564  16.868  65.369  0.00  0.00     0.048 H 
ATOM     54  H34 non d ame     -10.580  16.367  63.837  0.00  0.00     0.048 H 
BRANCH  52  55
ATOM     55  C23 non d ame     -11.932  14.913  64.610  0.00  0.00     0.259 C 
ATOM     56  O7  non d ame     -12.809  14.966  63.811  0.00  0.00    -0.265 OA
BRANCH  55  57
ATOM     57  O8  non d ame     -11.749  13.740  65.394  0.00  0.00    -0.317 OA
BRANCH  57  58
ATOM     58  C29 non d ame     -12.265  12.549  64.792  0.00  0.00     0.052 C 
ATOM     59  H47 non d ame     -12.806  12.029  65.582  0.00  0.00     0.082 H 
ATOM     60  H48 non d ame     -12.793  12.877  63.896  0.00  0.00     0.082 H 
BRANCH  58  61
ATOM     61  C35 non d ame     -11.061  11.671  64.359  0.00  0.00    -0.034 A 
ATOM     62  C30 non d ame     -10.370  11.966  63.188  0.00  0.00    -0.075 A 
ATOM     63  C31 non d ame      -9.289  11.177  62.799  0.00  0.00    -0.082 A 
ATOM     64  H49 non d ame     -10.676  12.814  62.576  0.00  0.00     0.084 H 
ATOM     65  C32 non d ame      -8.900  10.089  63.584  0.00  0.00    -0.083 A 
ATOM     66  H50 non d ame      -8.749  11.412  61.882  0.00  0.00     0.083 H 
ATOM     67  C33 non d ame      -9.595   9.796  64.750  0.00  0.00    -0.082 A 
ATOM     68  H51 non d ame      -8.056   9.467  63.287  0.00  0.00     0.083 H 
ATOM     69  C34 non d ame     -10.675  10.584  65.144  0.00  0.00    -0.075 A 
ATOM     70  H52 non d ame      -9.291   8.945  65.360  0.00  0.00     0.083 H 
ATOM     71  H53 non d ame     -11.215  10.349  66.063  0.00  0.00     0.084 H 
ENDBRANCH  58  61
ENDBRANCH  57  58
ENDBRANCH  55  57
ENDBRANCH  52  55
ENDBRANCH  49  52
ENDBRANCH  47  49
BRANCH  47  72
ATOM     72  C24 non d ame      -8.583  17.012  67.534  0.00  0.00    -0.039 C 
ATOM     73  H35 non d ame      -8.385  16.644  68.541  0.00  0.00     0.036 H 
ATOM     74  H36 non d ame      -7.880  16.798  66.729  0.00  0.00     0.036 H 
BRANCH  72  75
ATOM     75  C25 non d ame      -8.719  18.605  67.632  0.00  0.00    -0.001 C 
ATOM     76  C26 non d ame     -10.299  19.042  67.507  0.00  0.00    -0.035 C 
ATOM     77  C27 non d ame     -10.414  19.997  66.554  0.00  0.00     0.085 C 
ATOM     78  H38 non d ame     -10.885  18.214  67.108  0.00  0.00     0.036 H 
ATOM     79  H39 non d ame     -10.621  19.549  68.417  0.00  0.00     0.036 H 
ATOM     80  N5  non d ame      -9.111  20.020  65.792  0.00  0.00    -0.049 N 
ATOM     81  H40 non d ame     -11.208  19.655  65.890  0.00  0.00     0.075 H 
ATOM     82  H41 non d ame     -10.523  20.937  67.095  0.00  0.00     0.075 H 
ATOM     83  C28 non d ame      -8.056  19.189  66.690  0.00  0.00     0.193 C 
ATOM     84  H42 non d ame      -9.272  19.511  64.934  0.00  0.00     0.280 HD
ATOM     85  H43 non d ame      -8.815  20.984  65.758  0.00  0.00     0.280 HD
ATOM     86  H44 non d ame      -7.297  19.710  67.274  0.00  0.00     0.129 H 
ATOM     87  H37 non d ame      -8.156  19.017  68.470  0.00  0.00     0.046 H 
BRANCH  83  88
ATOM     88  O6  non d ame      -7.342  18.259  65.875  0.00  0.00    -0.369 OA
ATOM     89  H45 non d ame      -6.707  18.730  65.332  0.00  0.00     0.212 HD
ENDBRANCH  83  88
ENDBRANCH  72  75
ENDBRANCH  47  72
ENDBRANCH  45  47
ENDBRANCH   1  43
BRANCH   1  90
ATOM     90  C16 non d ame     -11.688  14.708  71.332  0.00  0.00    -0.035 C 
ATOM     91  H21 non d ame     -11.029  14.003  71.840  0.00  0.00     0.037 H 
ATOM     92  H22 non d ame     -11.406  15.757  71.253  0.00  0.00     0.037 H 
BRANCH  90  93
ATOM     93  C17 non d ame     -13.047  14.672  72.100  0.00  0.00    -0.059 C 
ATOM     94  H23 non d ame     -13.765  15.260  71.529  0.00  0.00     0.038 H 
BRANCH  93  95
ATOM     95  C18 non d ame     -13.613  13.222  72.231  0.00  0.00    -0.073 C 
ATOM     96  H24 non d ame     -13.988  13.069  73.243  0.00  0.00     0.028 H 
ATOM     97  H25 non d ame     -14.427  13.084  71.519  0.00  0.00     0.028 H 
ATOM     98  H26 non d ame     -12.822  12.502  72.022  0.00  0.00     0.028 H 
ENDBRANCH  93  95
BRANCH  93  99
ATOM     99  C19 non d ame     -12.914  15.331  73.476  0.00  0.00    -0.073 C 
ATOM    100  H27 non d ame     -12.221  14.755  74.089  0.00  0.00     0.028 H 
ATOM    101  H28 non d ame     -12.537  16.347  73.357  0.00  0.00     0.028 H 
ATOM    102  H29 non d ame     -13.889  15.360  73.961  0.00  0.00     0.028 H 
ENDBRANCH  93  99
ENDBRANCH  90  93
ENDBRANCH   1  90
TORSDOF 26
ENDMDL
MODEL 3
REMARK VINA RESULT:      -6.7      2.839      6.763
REMARK  26 active torsions:
REMARK  status: ('A' for Active; 'I' for Inactive)
REMARK    1  A    between atoms: C2_2  and  C3_3 
REMARK    2  A    between atoms: C4_6  and  C5_7 
REMARK       I    between atoms: C5_7  and  N2_9 
REMARK    3  A    between atoms: N2_9  and  C6_10 
REMARK    4  A    between atoms: C6_10  and  C7_11 
REMARK    5  A    between atoms: C6_10  and  C8_13 
REMARK       I    between atoms: C7_11  and  N3_14 
REMARK    6  A    between atoms: N3_14  and  C9_15 
REMARK    7  A    between atoms: C9_15  and  C10_16 
REMARK    8  A    between atoms: C9_15  and  C11_18 
REMARK       I    between atoms: C10_16  and  N4_21 
REMARK    9  A    between atoms: C11_18  and  C12_19 
REMARK   10  A    between atoms: C11_18  and  C13_20 
REMARK   11  A    between atoms: N4_21  and  C14_22 
REMARK   12  A    between atoms: C14_22  and  C15_23 
REMARK   13  A    between atoms: C14_22  and  C16_25 
REMARK       I    between atoms: C15_23  and  N6_40 
REMARK   14  A    between atoms: C16_25  and  C17_26 
REMARK   15  A    between atoms: C17_26  and  C18_27 
REMARK   16  A    between atoms: C17_26  and  C19_28 
REMARK   17  A    between atoms: C20_29  and  C21_30 
REMARK   18  A    between atoms: C20_29  and  C24_33 
REMARK   19  A    between atoms: C20_29  and  N6_40 
REMARK   20  A    between atoms: C21_30  and  C22_31 
REMARK   21  A    between atoms: C22_31  and  C23_32 
REMARK   22  A    between atoms: C23_32  and  O8_43 
REMARK   23  A    between atoms: C24_33  and  C25_34 
REMARK   24  A    between atoms: C28_38  and  O6_39 
REMARK   25  A    between atoms: C29_42  and  O8_43 
REMARK   26  A    between atoms: C29_42  and  C35_49 
ROOT
ATOM      1  C14 non d ame      -9.461  10.746  68.348  0.00  0.00     0.089 C 
ATOM      2  H20 non d ame      -8.775  11.112  69.112  0.00  0.00     0.087 H 
ENDROOT
BRANCH   1   3
ATOM      3  N4  non d ame     -10.153   9.589  68.897  0.00  0.00    -0.346 N 
ATOM      4  C10 non d ame      -9.442   8.656  69.845  0.00  0.00     0.241 C 
ATOM      5  O4  non d ame      -8.312   8.857  70.150  0.00  0.00    -0.271 OA
ATOM      6  H19 non d ame     -11.113   9.436  68.623  0.00  0.00     0.163 HD
BRANCH   4   7
ATOM      7  C9  non d ame     -10.174   7.467  70.408  0.00  0.00     0.092 C 
ATOM      8  H11 non d ame      -9.733   7.194  71.366  0.00  0.00     0.088 H 
BRANCH   7   9
ATOM      9  N3  non d ame     -11.572   7.829  70.663  0.00  0.00    -0.346 N 
ATOM     10  C7  non d ame     -12.014   8.095  72.009  0.00  0.00     0.240 C 
ATOM     11  O3  non d ame     -11.259   8.020  72.901  0.00  0.00    -0.271 OA
ATOM     12  H10 non d ame     -12.235   7.895  69.904  0.00  0.00     0.163 HD
BRANCH  10  13
ATOM     13  C6  non d ame     -13.504   8.476  72.274  0.00  0.00     0.086 C 
ATOM     14  H6  non d ame     -13.912   7.991  73.161  0.00  0.00     0.086 H 
BRANCH  13  15
ATOM     15  N2  non d ame     -13.589   9.908  72.506  0.00  0.00    -0.343 N 
ATOM     16  C5  non d ame     -13.097  10.834  71.484  0.00  0.00     0.273 C 
ATOM     17  O2  non d ame     -12.632  10.418  70.481  0.00  0.00    -0.266 OA
ATOM     18  H5  non d ame     -13.985  10.256  73.367  0.00  0.00     0.163 HD
BRANCH  16  19
ATOM     19  C4  non d ame     -13.182  12.351  71.715  0.00  0.00     0.154 A 
ATOM     20  C1  non d ame     -12.380  13.366  71.103  0.00  0.00    -0.017 A 
ATOM     21  C2  non d ame     -12.852  14.581  71.647  0.00  0.00     0.077 A 
ATOM     22  H1  non d ame     -11.578  13.240  70.375  0.00  0.00     0.091 H 
ATOM     23  O1  non d ame     -13.814  14.288  72.473  0.00  0.00    -0.218 OA
ATOM     24  N1  non d ame     -14.025  12.993  72.530  0.00  0.00    -0.123 NA
BRANCH  21  25
ATOM     25  C3  non d ame     -12.332  15.975  71.324  0.00  0.00    -0.029 C 
ATOM     26  H2  non d ame     -13.111  16.711  71.529  0.00  0.00     0.036 H 
ATOM     27  H3  non d ame     -11.460  16.189  71.942  0.00  0.00     0.036 H 
ATOM     28  H4  non d ame     -12.052  16.025  70.272  0.00  0.00     0.036 H 
ENDBRANCH  21  25
ENDBRANCH  16  19
ENDBRANCH  13  15
BRANCH  13  29
ATOM     29  C8  non d ame     -14.343   8.096  71.081  0.00  0.00    -0.049 C 
ATOM     30  H7  non d ame     -15.116   8.849  70.925  0.00  0.00     0.030 H 
ATOM     31  H8  non d ame     -13.709   8.037  70.195  0.00  0.00     0.030 H 
ATOM     32  H9  non d ame     -14.810   7.128  71.259  0.00  0.00     0.030 H 
ENDBRANCH  13  29
ENDBRANCH  10  13
ENDBRANCH   7   9
BRANCH   7  33
ATOM     33  C11 non d ame     -10.123   6.294  69.385  0.00  0.00    -0.033 C 
ATOM     34  H12 non d ame      -9.205   6.403  68.807  0.00  0.00     0.042 H 
BRANCH  33  35
ATOM     35  C12 non d ame     -10.062   4.912  70.107  0.00  0.00    -0.071 C 
ATOM     36  H13 non d ame     -10.420   4.134  69.433  0.00  0.00     0.028 H 
ATOM     37  H14 non d ame      -9.033   4.698  70.395  0.00  0.00     0.028 H 
ATOM     38  H15 non d ame     -10.690   4.941  70.998  0.00  0.00     0.028 H 
ENDBRANCH  33  35
BRANCH  33  39
ATOM     39  C13 non d ame     -11.329   6.363  68.394  0.00  0.00    -0.071 C 
ATOM     40  H16 non d ame     -11.336   5.472  67.768  0.00  0.00     0.028 H 
ATOM     41  H17 non d ame     -12.260   6.420  68.958  0.00  0.00     0.028 H 
ATOM     42  H18 non d ame     -11.230   7.248  67.765  0.00  0.00     0.028 H 
ENDBRANCH  33  39
ENDBRANCH   7  33
ENDBRANCH   4   7
ENDBRANCH   1   3
BRANCH   1  43
ATOM     43  C15 non d ame     -10.521  11.814  67.951  0.00  0.00     0.240 C 
ATOM     44  O5  non d ame     -11.654  11.490  67.787  0.00  0.00    -0.271 OA
ATOM     45  N6  non d ame     -10.126  13.241  67.782  0.00  0.00    -0.355 N 
ATOM     46  H46 non d ame      -9.168  13.529  67.922  0.00  0.00     0.162 HD
BRANCH  45  47
ATOM     47  C20 non d ame     -11.146  14.244  67.405  0.00  0.00     0.013 C 
ATOM     48  H30 non d ame     -12.120  13.861  67.708  0.00  0.00     0.072 H 
BRANCH  47  49
ATOM     49  C21 non d ame     -11.115  14.450  65.907  0.00  0.00    -0.038 C 
ATOM     50  H31 non d ame     -11.287  15.516  65.753  0.00  0.00     0.036 H 
ATOM     51  H32 non d ame     -10.185  13.992  65.567  0.00  0.00     0.036 H 
BRANCH  49  52
ATOM     52  C22 non d ame     -12.257  13.713  65.177  0.00  0.00     0.018 C 
ATOM     53  H33 non d ame     -12.810  13.181  65.952  0.00  0.00     0.048 H 
ATOM     54  H34 non d ame     -12.758  14.469  64.572  0.00  0.00     0.048 H 
BRANCH  52  55
ATOM     55  C23 non d ame     -11.764  12.625  64.182  0.00  0.00     0.259 C 
ATOM     56  O7  non d ame     -12.469  12.249  63.303  0.00  0.00    -0.265 OA
BRANCH  55  57
ATOM     57  O8  non d ame     -10.464  12.072  64.342  0.00  0.00    -0.317 OA
BRANCH  57  58
ATOM     58  C29 non d ame     -10.428  10.642  64.291  0.00  0.00     0.052 C 
ATOM     59  H47 non d ame     -10.176  10.317  65.300  0.00  0.00     0.082 H 
ATOM     60  H48 non d ame     -11.374  10.340  63.841  0.00  0.00     0.082 H 
BRANCH  58  61
ATOM     61  C35 non d ame      -9.276  10.226  63.338  0.00  0.00    -0.034 A 
ATOM     62  C30 non d ame      -8.715   8.958  63.436  0.00  0.00    -0.075 A 
ATOM     63  C31 non d ame      -7.680   8.584  62.581  0.00  0.00    -0.082 A 
ATOM     64  H49 non d ame      -9.085   8.257  64.184  0.00  0.00     0.084 H 
ATOM     65  C32 non d ame      -7.205   9.485  61.624  0.00  0.00    -0.083 A 
ATOM     66  H50 non d ame      -7.243   7.588  62.659  0.00  0.00     0.083 H 
ATOM     67  C33 non d ame      -7.766  10.752  61.532  0.00  0.00    -0.082 A 
ATOM     68  H51 non d ame      -6.396   9.201  60.951  0.00  0.00     0.083 H 
ATOM     69  C34 non d ame      -8.802  11.129  62.384  0.00  0.00    -0.075 A 
ATOM     70  H52 non d ame      -7.392  11.454  60.786  0.00  0.00     0.083 H 
ATOM     71  H53 non d ame      -9.239  12.125  62.304  0.00  0.00     0.084 H 
ENDBRANCH  58  61
ENDBRANCH  57  58
ENDBRANCH  55  57
ENDBRANCH  52  55
ENDBRANCH  49  52
ENDBRANCH  47  49
BRANCH  47  72
ATOM     72  C24 non d ame     -10.853  15.567  68.108  0.00  0.00    -0.039 C 
ATOM     73  H35 non d ame     -11.718  16.200  67.909  0.00  0.00     0.036 H 
ATOM     74  H36 non d ame     -10.598  15.301  69.135  0.00  0.00     0.036 H 
BRANCH  72  75
ATOM     75  C25 non d ame      -9.576  16.302  67.480  0.00  0.00    -0.001 C 
ATOM     76  C26 non d ame      -8.235  15.953  68.367  0.00  0.00    -0.035 C 
ATOM     77  C27 non d ame      -7.612  17.110  68.691  0.00  0.00     0.085 C 
ATOM     78  H38 non d ame      -8.524  15.540  69.333  0.00  0.00     0.036 H 
ATOM     79  H39 non d ame      -7.503  15.432  67.749  0.00  0.00     0.036 H 
ATOM     80  N5  non d ame      -8.576  18.232  68.386  0.00  0.00    -0.049 N 
ATOM     81  H40 non d ame      -7.450  17.063  69.768  0.00  0.00     0.075 H 
ATOM     82  H41 non d ame      -6.761  17.182  68.014  0.00  0.00     0.075 H 
ATOM     83  C28 non d ame      -9.734  17.584  67.466  0.00  0.00     0.193 C 
ATOM     84  H42 non d ame      -8.983  18.506  69.269  0.00  0.00     0.280 HD
ATOM     85  H43 non d ame      -8.066  18.906  67.834  0.00  0.00     0.280 HD
ATOM     86  H44 non d ame      -9.756  17.770  66.392  0.00  0.00     0.129 H 
ATOM     87  H37 non d ame      -9.507  16.162  66.402  0.00  0.00     0.046 H 
BRANCH  83  88
ATOM     88  O6  non d ame     -11.021  17.974  67.948  0.00  0.00    -0.369 OA
ATOM     89  H45 non d ame     -11.219  17.493  68.755  0.00  0.00     0.212 HD
ENDBRANCH  83  88
ENDBRANCH  72  75
ENDBRANCH  47  72
ENDBRANCH  45  47
ENDBRANCH   1  43
BRANCH   1  90
ATOM     90  C16 non d ame      -8.679  10.319  67.116  0.00  0.00    -0.035 C 
ATOM     91  H21 non d ame      -8.842   9.245  67.029  0.00  0.00     0.037 H 
ATOM     92  H22 non d ame      -9.008  10.986  66.320  0.00  0.00     0.037 H 
BRANCH  90  93
ATOM     93  C17 non d ame      -7.136  10.522  67.252  0.00  0.00    -0.059 C 
ATOM     94  H23 non d ame      -6.738   9.666  67.798  0.00  0.00     0.038 H 
BRANCH  93  95
ATOM     95  C18 non d ame      -6.423  10.576  65.864  0.00  0.00    -0.073 C 
ATOM     96  H24 non d ame      -5.401  10.933  65.995  0.00  0.00     0.028 H 
ATOM     97  H25 non d ame      -6.405   9.579  65.425  0.00  0.00     0.028 H 
ATOM     98  H26 non d ame      -6.964  11.254  65.204  0.00  0.00     0.028 H 
ENDBRANCH  93  95
BRANCH  93  99
ATOM     99  C19 non d ame      -6.821  11.772  68.077  0.00  0.00    -0.073 C 
ATOM    100  H27 non d ame      -5.963  11.576  68.720  0.00  0.00     0.028 H 
ATOM    101  H28 non d ame      -6.591  12.601  67.407  0.00  0.00     0.028 H 
ATOM    102  H29 non d ame      -7.683  12.030  68.691  0.00  0.00     0.028 H 
ENDBRANCH  93  99
ENDBRANCH  90  93
ENDBRANCH   1  90
TORSDOF 26
ENDMDL
MODEL 4
REMARK VINA RESULT:      -6.7      2.491      5.204
REMARK  26 active torsions:
REMARK  status: ('A' for Active; 'I' for Inactive)
REMARK    1  A    between atoms: C2_2  and  C3_3 
REMARK    2  A    between atoms: C4_6  and  C5_7 
REMARK       I    between atoms: C5_7  and  N2_9 
REMARK    3  A    between atoms: N2_9  and  C6_10 
REMARK    4  A    between atoms: C6_10  and  C7_11 
REMARK    5  A    between atoms: C6_10  and  C8_13 
REMARK       I    between atoms: C7_11  and  N3_14 
REMARK    6  A    between atoms: N3_14  and  C9_15 
REMARK    7  A    between atoms: C9_15  and  C10_16 
REMARK    8  A    between atoms: C9_15  and  C11_18 
REMARK       I    between atoms: C10_16  and  N4_21 
REMARK    9  A    between atoms: C11_18  and  C12_19 
REMARK   10  A    between atoms: C11_18  and  C13_20 
REMARK   11  A    between atoms: N4_21  and  C14_22 
REMARK   12  A    between atoms: C14_22  and  C15_23 
REMARK   13  A    between atoms: C14_22  and  C16_25 
REMARK       I    between atoms: C15_23  and  N6_40 
REMARK   14  A    between atoms: C16_25  and  C17_26 
REMARK   15  A    between atoms: C17_26  and  C18_27 
REMARK   16  A    between atoms: C17_26  and  C19_28 
REMARK   17  A    between atoms: C20_29  and  C21_30 
REMARK   18  A    between atoms: C20_29  and  C24_33 
REMARK   19  A    between atoms: C20_29  and  N6_40 
REMARK   20  A    between atoms: C21_30  and  C22_31 
REMARK   21  A    between atoms: C22_31  and  C23_32 
REMARK   22  A    between atoms: C23_32  and  O8_43 
REMARK   23  A    between atoms: C24_33  and  C25_34 
REMARK   24  A    between atoms: C28_38  and  O6_39 
REMARK   25  A    between atoms: C29_42  and  O8_43 
REMARK   26  A    between atoms: C29_42  and  C35_49 
ROOT
ATOM      1  C14 non d ame     -11.461   8.263  70.591  0.00  0.00     0.089 C 
ATOM      2  H20 non d ame     -12.399   7.947  70.135  0.00  0.00     0.087 H 
ENDROOT
BRANCH   1   3
ATOM      3  N4  non d ame     -10.540   7.138  70.529  0.00  0.00    -0.346 N 
ATOM      4  C10 non d ame     -10.660   6.116  69.427  0.00  0.00     0.241 C 
ATOM      5  O4  non d ame     -11.507   6.220  68.601  0.00  0.00    -0.271 OA
ATOM      6  H19 non d ame      -9.828   7.066  71.243  0.00  0.00     0.163 HD
BRANCH   4   7
ATOM      7  C9  non d ame      -9.696   4.960  69.375  0.00  0.00     0.092 C 
ATOM      8  H11 non d ame     -10.233   4.057  69.085  0.00  0.00     0.088 H 
BRANCH   7   9
ATOM      9  N3  non d ame      -8.685   5.212  68.343  0.00  0.00    -0.346 N 
ATOM     10  C7  non d ame      -8.811   4.597  67.045  0.00  0.00     0.240 C 
ATOM     11  O3  non d ame      -9.720   3.896  66.813  0.00  0.00    -0.271 OA
ATOM     12  H10 non d ame      -7.896   5.813  68.529  0.00  0.00     0.163 HD
BRANCH  10  13
ATOM     13  C6  non d ame      -7.731   4.867  65.952  0.00  0.00     0.086 C 
ATOM     14  H6  non d ame      -7.872   4.257  65.059  0.00  0.00     0.086 H 
BRANCH  13  15
ATOM     15  N2  non d ame      -7.826   6.253  65.528  0.00  0.00    -0.343 N 
ATOM     16  C5  non d ame      -7.978   6.563  64.104  0.00  0.00     0.273 C 
ATOM     17  O2  non d ame      -8.021   5.689  63.309  0.00  0.00    -0.266 OA
ATOM     18  H5  non d ame      -7.786   6.994  66.213  0.00  0.00     0.163 HD
BRANCH  16  19
ATOM     19  C4  non d ame      -8.082   8.024  63.641  0.00  0.00     0.154 A 
ATOM     20  C1  non d ame      -7.687   8.560  62.373  0.00  0.00    -0.017 A 
ATOM     21  C2  non d ame      -7.987   9.938  62.451  0.00  0.00     0.077 A 
ATOM     22  H1  non d ame      -7.249   8.030  61.527  0.00  0.00     0.091 H 
ATOM     23  O1  non d ame      -8.497  10.158  63.629  0.00  0.00    -0.218 OA
ATOM     24  N1  non d ame      -8.561   9.056  64.341  0.00  0.00    -0.123 NA
BRANCH  21  25
ATOM     25  C3  non d ame      -7.760  10.973  61.358  0.00  0.00    -0.029 C 
ATOM     26  H2  non d ame      -7.800  11.974  61.790  0.00  0.00     0.036 H 
ATOM     27  H3  non d ame      -6.782  10.813  60.904  0.00  0.00     0.036 H 
ATOM     28  H4  non d ame      -8.534  10.875  60.597  0.00  0.00     0.036 H 
ENDBRANCH  21  25
ENDBRANCH  16  19
ENDBRANCH  13  15
BRANCH  13  29
ATOM     29  C8  non d ame      -6.361   4.593  66.518  0.00  0.00    -0.049 C 
ATOM     30  H7  non d ame      -5.603   5.006  65.852  0.00  0.00     0.030 H 
ATOM     31  H8  non d ame      -6.274   5.059  67.500  0.00  0.00     0.030 H 
ATOM     32  H9  non d ame      -6.214   3.518  66.611  0.00  0.00     0.030 H 
ENDBRANCH  13  29
ENDBRANCH  10  13
ENDBRANCH   7   9
BRANCH   7  33
ATOM     33  C11 non d ame      -8.996   4.806  70.757  0.00  0.00    -0.033 C 
ATOM     34  H12 non d ame      -9.394   5.578  71.415  0.00  0.00     0.042 H 
BRANCH  33  35
ATOM     35  C12 non d ame      -9.318   3.424  71.406  0.00  0.00    -0.071 C 
ATOM     36  H13 non d ame      -9.070   2.627  70.705  0.00  0.00     0.028 H 
ATOM     37  H14 non d ame      -8.730   3.304  72.316  0.00  0.00     0.028 H 
ATOM     38  H15 non d ame     -10.379   3.377  71.651  0.00  0.00     0.028 H 
ENDBRANCH  33  35
BRANCH  33  39
ATOM     39  C13 non d ame      -7.454   5.026  70.630  0.00  0.00    -0.071 C 
ATOM     40  H16 non d ame      -7.182   5.970  71.101  0.00  0.00     0.028 H 
ATOM     41  H17 non d ame      -6.928   4.208  71.122  0.00  0.00     0.028 H 
ATOM     42  H18 non d ame      -7.178   5.054  69.576  0.00  0.00     0.028 H 
ENDBRANCH  33  39
ENDBRANCH   7  33
ENDBRANCH   4   7
ENDBRANCH   1   3
BRANCH   1  43
ATOM     43  C15 non d ame     -10.821   9.467  69.842  0.00  0.00     0.240 C 
ATOM     44  O5  non d ame      -9.661   9.698  69.975  0.00  0.00    -0.271 OA
ATOM     45  N6  non d ame     -11.650  10.328  68.951  0.00  0.00    -0.355 N 
ATOM     46  H46 non d ame     -12.634  10.139  68.826  0.00  0.00     0.162 HD
BRANCH  45  47
ATOM     47  C20 non d ame     -11.026  11.468  68.245  0.00  0.00     0.013 C 
ATOM     48  H30 non d ame     -10.024  11.606  68.651  0.00  0.00     0.072 H 
BRANCH  47  49
ATOM     49  C21 non d ame     -11.852  12.713  68.477  0.00  0.00    -0.038 C 
ATOM     50  H31 non d ame     -12.034  13.134  67.488  0.00  0.00     0.036 H 
ATOM     51  H32 non d ame     -12.691  12.397  69.098  0.00  0.00     0.036 H 
BRANCH  49  52
ATOM     52  C22 non d ame     -11.097  13.793  69.281  0.00  0.00     0.018 C 
ATOM     53  H33 non d ame     -10.827  13.323  70.227  0.00  0.00     0.048 H 
ATOM     54  H34 non d ame     -10.317  14.165  68.615  0.00  0.00     0.048 H 
BRANCH  52  55
ATOM     55  C23 non d ame     -11.970  15.024  69.649  0.00  0.00     0.259 C 
ATOM     56  O7  non d ame     -12.944  14.894  70.317  0.00  0.00    -0.265 OA
BRANCH  55  57
ATOM     57  O8  non d ame     -11.602  16.310  69.166  0.00  0.00    -0.317 OA
BRANCH  57  58
ATOM     58  C29 non d ame     -10.190  16.534  69.122  0.00  0.00     0.052 C 
ATOM     59  H47 non d ame      -9.893  16.753  70.147  0.00  0.00     0.082 H 
ATOM     60  H48 non d ame      -9.771  15.670  68.606  0.00  0.00     0.082 H 
BRANCH  58  61
ATOM     61  C35 non d ame      -9.932  17.795  68.256  0.00  0.00    -0.034 A 
ATOM     62  C30 non d ame     -10.726  18.050  67.143  0.00  0.00    -0.075 A 
ATOM     63  C31 non d ame     -10.494  19.183  66.364  0.00  0.00    -0.082 A 
ATOM     64  H49 non d ame     -11.529  17.363  66.880  0.00  0.00     0.084 H 
ATOM     65  C32 non d ame      -9.462  20.063  66.702  0.00  0.00    -0.083 A 
ATOM     66  H50 non d ame     -11.119  19.381  65.494  0.00  0.00     0.083 H 
ATOM     67  C33 non d ame      -8.669  19.803  67.812  0.00  0.00    -0.082 A 
ATOM     68  H51 non d ame      -9.274  20.951  66.099  0.00  0.00     0.083 H 
ATOM     69  C34 non d ame      -8.899  18.672  68.594  0.00  0.00    -0.075 A 
ATOM     70  H52 non d ame      -7.863  20.489  68.071  0.00  0.00     0.083 H 
ATOM     71  H53 non d ame      -8.273  18.476  69.465  0.00  0.00     0.084 H 
ENDBRANCH  58  61
ENDBRANCH  57  58
ENDBRANCH  55  57
ENDBRANCH  52  55
ENDBRANCH  49  52
ENDBRANCH  47  49
BRANCH  47  72
ATOM     72  C24 non d ame     -10.957  11.173  66.749  0.00  0.00    -0.039 C 
ATOM     73  H35 non d ame      -9.954  10.783  66.575  0.00  0.00     0.036 H 
ATOM     74  H36 non d ame     -11.827  10.552  66.534  0.00  0.00     0.036 H 
BRANCH  72  75
ATOM     75  C25 non d ame     -11.102  12.508  65.874  0.00  0.00    -0.001 C 
ATOM     76  C26 non d ame     -12.259  12.301  64.724  0.00  0.00    -0.035 C 
ATOM     77  C27 non d ame     -11.746  12.651  63.521  0.00  0.00     0.085 C 
ATOM     78  H38 non d ame     -12.484  11.241  64.607  0.00  0.00     0.036 H 
ATOM     79  H39 non d ame     -13.068  13.017  64.874  0.00  0.00     0.036 H 
ATOM     80  N5  non d ame     -10.251  12.766  63.694  0.00  0.00    -0.049 N 
ATOM     81  H40 non d ame     -11.964  11.814  62.856  0.00  0.00     0.075 H 
ATOM     82  H41 non d ame     -12.155  13.638  63.306  0.00  0.00     0.075 H 
ATOM     83  C28 non d ame      -9.991  12.805  65.288  0.00  0.00     0.193 C 
ATOM     84  H42 non d ame      -9.854  11.914  63.325  0.00  0.00     0.280 HD
ATOM     85  H43 non d ame      -9.985  13.657  63.303  0.00  0.00     0.280 HD
ATOM     86  H44 non d ame      -9.749  13.744  65.786  0.00  0.00     0.129 H 
ATOM     87  H37 non d ame     -11.173  13.401  66.494  0.00  0.00     0.046 H 
BRANCH  83  88
ATOM     88  O6  non d ame      -8.938  11.905  65.637  0.00  0.00    -0.369 OA
ATOM     89  H45 non d ame      -9.250  11.001  65.554  0.00  0.00     0.212 HD
ENDBRANCH  83  88
ENDBRANCH  72  75
ENDBRANCH  47  72
ENDBRANCH  45  47
ENDBRANCH   1  43
BRANCH   1  90
ATOM     90  C16 non d ame     -11.695   8.634  72.047  0.00  0.00    -0.035 C 
ATOM     91  H21 non d ame     -11.589   7.702  72.602  0.00  0.00     0.037 H 
ATOM     92  H22 non d ame     -11.021   9.466  72.245  0.00  0.00     0.037 H 
BRANCH  90  93
ATOM     93  C17 non d ame     -13.138   9.156  72.335  0.00  0.00    -0.059 C 
ATOM     94  H23 non d ame     -13.316   9.063  73.407  0.00  0.00     0.038 H 
BRANCH  93  95
ATOM     95  C18 non d ame     -13.310  10.660  71.953  0.00  0.00    -0.073 C 
ATOM     96  H24 non d ame     -14.234  10.789  71.388  0.00  0.00     0.028 H 
ATOM     97  H25 non d ame     -13.353  11.264  72.859  0.00  0.00     0.028 H 
ATOM     98  H26 non d ame     -12.464  10.980  71.344  0.00  0.00     0.028 H 
ENDBRANCH  93  95
BRANCH  93  99
ATOM     99  C19 non d ame     -14.184   8.291  71.626  0.00  0.00    -0.073 C 
ATOM    100  H27 non d ame     -13.988   7.239  71.836  0.00  0.00     0.028 H 
ATOM    101  H28 non d ame     -15.179   8.554  71.987  0.00  0.00     0.028 H 
ATOM    102  H29 non d ame     -14.129   8.463  70.552  0.00  0.00     0.028 H 
ENDBRANCH  93  99
ENDBRANCH  90  93
ENDBRANCH   1  90
TORSDOF 26
ENDMDL
MODEL 5
REMARK VINA RESULT:      -6.6      2.888      8.830
REMARK  26 active torsions:
REMARK  status: ('A' for Active; 'I' for Inactive)
REMARK    1  A    between atoms: C2_2  and  C3_3 
REMARK    2  A    between atoms: C4_6  and  C5_7 
REMARK       I    between atoms: C5_7  and  N2_9 
REMARK    3  A    between atoms: N2_9  and  C6_10 
REMARK    4  A    between atoms: C6_10  and  C7_11 
REMARK    5  A    between atoms: C6_10  and  C8_13 
REMARK       I    between atoms: C7_11  and  N3_14 
REMARK    6  A    between atoms: N3_14  and  C9_15 
REMARK    7  A    between atoms: C9_15  and  C10_16 
REMARK    8  A    between atoms: C9_15  and  C11_18 
REMARK       I    between atoms: C10_16  and  N4_21 
REMARK    9  A    between atoms: C11_18  and  C12_19 
REMARK   10  A    between atoms: C11_18  and  C13_20 
REMARK   11  A    between atoms: N4_21  and  C14_22 
REMARK   12  A    between atoms: C14_22  and  C15_23 
REMARK   13  A    between atoms: C14_22  and  C16_25 
REMARK       I    between atoms: C15_23  and  N6_40 
REMARK   14  A    between atoms: C16_25  and  C17_26 
REMARK   15  A    between atoms: C17_26  and  C18_27 
REMARK   16  A    between atoms: C17_26  and  C19_28 
REMARK   17  A    between atoms: C20_29  and  C21_30 
REMARK   18  A    between atoms: C20_29  and  C24_33 
REMARK   19  A    between atoms: C20_29  and  N6_40 
REMARK   20  A    between atoms: C21_30  and  C22_31 
REMARK   21  A    between atoms: C22_31  and  C23_32 
REMARK   22  A    between atoms: C23_32  and  O8_43 
REMARK   23  A    between atoms: C24_33  and  C25_34 
REMARK   24  A    between atoms: C28_38  and  O6_39 
REMARK   25  A    between atoms: C29_42  and  O8_43 
REMARK   26  A    between atoms: C29_42  and  C35_49 
ROOT
ATOM      1  C14 non d ame      -6.238  12.946  69.577  0.00  0.00     0.089 C 
ATOM      2  H20 non d ame      -5.390  12.919  68.894  0.00  0.00     0.087 H 
ENDROOT
BRANCH   1   3
ATOM      3  N4  non d ame      -7.281  13.744  68.951  0.00  0.00    -0.346 N 
ATOM      4  C10 non d ame      -6.972  14.583  67.736  0.00  0.00     0.241 C 
ATOM      5  O4  non d ame      -5.875  14.602  67.283  0.00  0.00    -0.271 OA
ATOM      6  H19 non d ame      -8.208  13.716  69.354  0.00  0.00     0.163 HD
BRANCH   4   7
ATOM      7  C9  non d ame      -8.064  15.399  67.097  0.00  0.00     0.092 C 
ATOM      8  H11 non d ame      -7.953  15.362  66.014  0.00  0.00     0.088 H 
BRANCH   7   9
ATOM      9  N3  non d ame      -9.367  14.809  67.418  0.00  0.00    -0.346 N 
ATOM     10  C7  non d ame     -10.323  14.556  66.368  0.00  0.00     0.240 C 
ATOM     11  O3  non d ame     -10.061  14.824  65.259  0.00  0.00    -0.271 OA
ATOM     12  H10 non d ame      -9.608  14.574  68.370  0.00  0.00     0.163 HD
BRANCH  10  13
ATOM     13  C6  non d ame     -11.709  13.931  66.717  0.00  0.00     0.086 C 
ATOM     14  H6  non d ame     -11.647  12.866  66.943  0.00  0.00     0.086 H 
BRANCH  13  15
ATOM     15  N2  non d ame     -12.232  14.579  67.907  0.00  0.00    -0.343 N 
ATOM     16  C5  non d ame     -11.892  14.045  69.228  0.00  0.00     0.273 C 
ATOM     17  O2  non d ame     -11.198  13.093  69.321  0.00  0.00    -0.266 OA
ATOM     18  H5  non d ame     -12.826  15.391  67.819  0.00  0.00     0.163 HD
BRANCH  16  19
ATOM     19  C4  non d ame     -12.436  14.722  70.496  0.00  0.00     0.154 A 
ATOM     20  C1  non d ame     -11.707  15.046  71.684  0.00  0.00    -0.017 A 
ATOM     21  C2  non d ame     -12.655  15.648  72.540  0.00  0.00     0.077 A 
ATOM     22  H1  non d ame     -10.651  14.870  71.893  0.00  0.00     0.091 H 
ATOM     23  O1  non d ame     -13.793  15.665  71.908  0.00  0.00    -0.218 OA
ATOM     24  N1  non d ame     -13.689  15.129  70.713  0.00  0.00    -0.123 NA
BRANCH  21  25
ATOM     25  C3  non d ame     -12.394  16.181  73.942  0.00  0.00    -0.029 C 
ATOM     26  H2  non d ame     -12.858  15.520  74.676  0.00  0.00     0.036 H 
ATOM     27  H3  non d ame     -11.319  16.223  74.120  0.00  0.00     0.036 H 
ATOM     28  H4  non d ame     -12.816  17.181  74.037  0.00  0.00     0.036 H 
ENDBRANCH  21  25
ENDBRANCH  16  19
ENDBRANCH  13  15
BRANCH  13  29
ATOM     29  C8  non d ame     -12.658  14.129  65.562  0.00  0.00    -0.049 C 
ATOM     30  H7  non d ame     -13.683  14.150  65.933  0.00  0.00     0.030 H 
ATOM     31  H8  non d ame     -12.432  15.073  65.064  0.00  0.00     0.030 H 
ATOM     32  H9  non d ame     -12.546  13.308  64.855  0.00  0.00     0.030 H 
ENDBRANCH  13  29
ENDBRANCH  10  13
ENDBRANCH   7   9
BRANCH   7  33
ATOM     33  C11 non d ame      -8.010  16.857  67.642  0.00  0.00    -0.033 C 
ATOM     34  H12 non d ame      -7.075  16.967  68.191  0.00  0.00     0.042 H 
BRANCH  33  35
ATOM     35  C12 non d ame      -7.997  17.898  66.479  0.00  0.00    -0.071 C 
ATOM     36  H13 non d ame      -7.353  18.735  66.749  0.00  0.00     0.028 H 
ATOM     37  H14 non d ame      -7.617  17.426  65.573  0.00  0.00     0.028 H 
ATOM     38  H15 non d ame      -9.010  18.258  66.303  0.00  0.00     0.028 H 
ENDBRANCH  33  35
BRANCH  33  39
ATOM     39  C13 non d ame      -9.188  17.128  68.631  0.00  0.00    -0.071 C 
ATOM     40  H16 non d ame      -9.965  16.378  68.486  0.00  0.00     0.028 H 
ATOM     41  H17 non d ame      -8.821  17.078  69.657  0.00  0.00     0.028 H 
ATOM     42  H18 non d ame      -9.600  18.119  68.441  0.00  0.00     0.028 H 
ENDBRANCH  33  39
ENDBRANCH   7  33
ENDBRANCH   4   7
ENDBRANCH   1   3
BRANCH   1  43
ATOM     43  C15 non d ame      -6.807  11.526  69.865  0.00  0.00     0.240 C 
ATOM     44  O5  non d ame      -6.211  10.784  70.579  0.00  0.00    -0.271 OA
ATOM     45  N6  non d ame      -8.098  11.094  69.258  0.00  0.00    -0.355 N 
ATOM     46  H46 non d ame      -8.615  11.717  68.654  0.00  0.00     0.162 HD
BRANCH  45  47
ATOM     47  C20 non d ame      -8.625   9.742  69.543  0.00  0.00     0.013 C 
ATOM     48  H30 non d ame      -8.392   9.503  70.580  0.00  0.00     0.072 H 
BRANCH  47  49
ATOM     49  C21 non d ame      -7.963   8.743  68.621  0.00  0.00    -0.038 C 
ATOM     50  H31 non d ame      -7.680   9.305  67.731  0.00  0.00     0.036 H 
ATOM     51  H32 non d ame      -7.198   8.251  69.223  0.00  0.00     0.036 H 
BRANCH  49  52
ATOM     52  C22 non d ame      -8.927   7.633  68.149  0.00  0.00     0.018 C 
ATOM     53  H33 non d ame      -8.917   6.878  68.935  0.00  0.00     0.048 H 
ATOM     54  H34 non d ame      -9.858   8.140  67.892  0.00  0.00     0.048 H 
BRANCH  52  55
ATOM     55  C23 non d ame      -8.461   6.909  66.855  0.00  0.00     0.259 C 
ATOM     56  O7  non d ame      -7.695   6.003  66.914  0.00  0.00    -0.265 OA
BRANCH  55  57
ATOM     57  O8  non d ame      -8.949   7.350  65.594  0.00  0.00    -0.317 OA
BRANCH  57  58
ATOM     58  C29 non d ame      -8.053   8.217  64.893  0.00  0.00     0.052 C 
ATOM     59  H47 non d ame      -7.327   8.553  65.632  0.00  0.00     0.082 H 
ATOM     60  H48 non d ame      -7.721   7.654  64.020  0.00  0.00     0.082 H 
BRANCH  58  61
ATOM     61  C35 non d ame      -8.862   9.448  64.403  0.00  0.00    -0.034 A 
ATOM     62  C30 non d ame      -9.908   9.945  65.173  0.00  0.00    -0.075 A 
ATOM     63  C31 non d ame     -10.635  11.050  64.734  0.00  0.00    -0.082 A 
ATOM     64  H49 non d ame     -10.158   9.469  66.120  0.00  0.00     0.084 H 
ATOM     65  C32 non d ame     -10.313  11.658  63.517  0.00  0.00    -0.083 A 
ATOM     66  H50 non d ame     -11.453  11.438  65.340  0.00  0.00     0.083 H 
ATOM     67  C33 non d ame      -9.270  11.156  62.750  0.00  0.00    -0.082 A 
ATOM     68  H51 non d ame     -10.876  12.522  63.165  0.00  0.00     0.083 H 
ATOM     69  C34 non d ame      -8.540  10.053  63.187  0.00  0.00    -0.075 A 
ATOM     70  H52 non d ame      -9.023  11.631  61.800  0.00  0.00     0.083 H 
ATOM     71  H53 non d ame      -7.721   9.666  62.579  0.00  0.00     0.084 H 
ENDBRANCH  58  61
ENDBRANCH  57  58
ENDBRANCH  55  57
ENDBRANCH  52  55
ENDBRANCH  49  52
ENDBRANCH  47  49
BRANCH  47  72
ATOM     72  C24 non d ame     -10.135   9.720  69.319  0.00  0.00    -0.039 C 
ATOM     73  H35 non d ame     -10.356  10.612  68.734  0.00  0.00     0.036 H 
ATOM     74  H36 non d ame     -10.354   8.733  68.911  0.00  0.00     0.036 H 
BRANCH  72  75
ATOM     75  C25 non d ame     -10.940   9.849  70.699  0.00  0.00    -0.001 C 
ATOM     76  C26 non d ame     -10.888   8.422  71.514  0.00  0.00    -0.035 C 
ATOM     77  C27 non d ame     -12.149   8.069  71.858  0.00  0.00     0.085 C 
ATOM     78  H38 non d ame     -10.573   7.621  70.846  0.00  0.00     0.036 H 
ATOM     79  H39 non d ame     -10.390   8.558  72.474  0.00  0.00     0.036 H 
ATOM     80  N5  non d ame     -13.086   8.954  71.072  0.00  0.00    -0.049 N 
ATOM     81  H40 non d ame     -12.266   7.039  71.521  0.00  0.00     0.075 H 
ATOM     82  H41 non d ame     -12.240   8.310  72.918  0.00  0.00     0.075 H 
ATOM     83  C28 non d ame     -12.178  10.156  70.490  0.00  0.00     0.193 C 
ATOM     84  H42 non d ame     -13.420   8.400  70.297  0.00  0.00     0.280 HD
ATOM     85  H43 non d ame     -13.741   9.339  71.736  0.00  0.00     0.280 HD
ATOM     86  H44 non d ame     -12.215  11.147  70.943  0.00  0.00     0.129 H 
ATOM     87  H37 non d ame     -10.668  10.747  71.253  0.00  0.00     0.046 H 
BRANCH  83  88
ATOM     88  O6  non d ame     -12.458  10.358  69.105  0.00  0.00    -0.369 OA
ATOM     89  H45 non d ame     -11.875   9.807  68.577  0.00  0.00     0.212 HD
ENDBRANCH  83  88
ENDBRANCH  72  75
ENDBRANCH  47  72
ENDBRANCH  45  47
ENDBRANCH   1  43
BRANCH   1  90
ATOM     90  C16 non d ame      -5.825  13.605  70.884  0.00  0.00    -0.035 C 
ATOM     91  H21 non d ame      -6.585  14.363  71.077  0.00  0.00     0.037 H 
ATOM     92  H22 non d ame      -5.682  12.786  71.588  0.00  0.00     0.037 H 
BRANCH  90  93
ATOM     93  C17 non d ame      -4.461  14.361  70.801  0.00  0.00    -0.059 C 
ATOM     94  H23 non d ame      -3.982  14.287  71.777  0.00  0.00     0.038 H 
BRANCH  93  95
ATOM     95  C18 non d ame      -3.499  13.726  69.747  0.00  0.00    -0.073 C 
ATOM     96  H24 non d ame      -3.404  14.396  68.892  0.00  0.00     0.028 H 
ATOM     97  H25 non d ame      -2.518  13.574  70.197  0.00  0.00     0.028 H 
ATOM     98  H26 non d ame      -3.900  12.768  69.418  0.00  0.00     0.028 H 
ENDBRANCH  93  95
BRANCH  93  99
ATOM     99  C19 non d ame      -4.678  15.849  70.514  0.00  0.00    -0.073 C 
ATOM    100  H27 non d ame      -5.584  16.187  71.018  0.00  0.00     0.028 H 
ATOM    101  H28 non d ame      -3.824  16.418  70.881  0.00  0.00     0.028 H 
ATOM    102  H29 non d ame      -4.782  16.001  69.440  0.00  0.00     0.028 H 
ENDBRANCH  93  99
ENDBRANCH  90  93
ENDBRANCH   1  90
TORSDOF 26
ENDMDL
MODEL 6
REMARK VINA RESULT:      -6.6      3.021      8.987
REMARK  26 active torsions:
REMARK  status: ('A' for Active; 'I' for Inactive)
REMARK    1  A    between atoms: C2_2  and  C3_3 
REMARK    2  A    between atoms: C4_6  and  C5_7 
REMARK       I    between atoms: C5_7  and  N2_9 
REMARK    3  A    between atoms: N2_9  and  C6_10 
REMARK    4  A    between atoms: C6_10  and  C7_11 
REMARK    5  A    between atoms: C6_10  and  C8_13 
REMARK       I    between atoms: C7_11  and  N3_14 
REMARK    6  A    between atoms: N3_14  and  C9_15 
REMARK    7  A    between atoms: C9_15  and  C10_16 
REMARK    8  A    between atoms: C9_15  and  C11_18 
REMARK       I    between atoms: C10_16  and  N4_21 
REMARK    9  A    between atoms: C11_18  and  C12_19 
REMARK   10  A    between atoms: C11_18  and  C13_20 
REMARK   11  A    between atoms: N4_21  and  C14_22 
REMARK   12  A    between atoms: C14_22  and  C15_23 
REMARK   13  A    between atoms: C14_22  and  C16_25 
REMARK       I    between atoms: C15_23  and  N6_40 
REMARK   14  A    between atoms: C16_25  and  C17_26 
REMARK   15  A    between atoms: C17_26  and  C18_27 
REMARK   16  A    between atoms: C17_26  and  C19_28 
REMARK   17  A    between atoms: C20_29  and  C21_30 
REMARK   18  A    between atoms: C20_29  and  C24_33 
REMARK   19  A    between atoms: C20_29  and  N6_40 
REMARK   20  A    between atoms: C21_30  and  C22_31 
REMARK   21  A    between atoms: C22_31  and  C23_32 
REMARK   22  A    between atoms: C23_32  and  O8_43 
REMARK   23  A    between atoms: C24_33  and  C25_34 
REMARK   24  A    between atoms: C28_38  and  O6_39 
REMARK   25  A    between atoms: C29_42  and  O8_43 
REMARK   26  A    between atoms: C29_42  and  C35_49 
ROOT
ATOM      1  C14 non d ame      -7.478   9.874  64.678  0.00  0.00     0.089 C 
ATOM      2  H20 non d ame      -7.951   8.912  64.479  0.00  0.00     0.087 H 
ENDROOT
BRANCH   1   3
ATOM      3  N4  non d ame      -8.535  10.869  64.783  0.00  0.00    -0.346 N 
ATOM      4  C10 non d ame      -9.856  10.513  65.418  0.00  0.00     0.241 C 
ATOM      5  O4  non d ame     -10.045   9.418  65.836  0.00  0.00    -0.271 OA
ATOM      6  H19 non d ame      -8.354  11.794  64.419  0.00  0.00     0.163 HD
BRANCH   4   7
ATOM      7  C9  non d ame     -10.936  11.557  65.524  0.00  0.00     0.092 C 
ATOM      8  H11 non d ame     -11.891  11.067  65.715  0.00  0.00     0.088 H 
BRANCH   7   9
ATOM      9  N3  non d ame     -10.663  12.431  66.668  0.00  0.00    -0.346 N 
ATOM     10  C7  non d ame     -11.385  12.250  67.903  0.00  0.00     0.240 C 
ATOM     11  O3  non d ame     -12.193  11.407  67.992  0.00  0.00    -0.271 OA
ATOM     12  H10 non d ame      -9.970  13.163  66.605  0.00  0.00     0.163 HD
BRANCH  10  13
ATOM     13  C6  non d ame     -11.092  13.186  69.116  0.00  0.00     0.086 C 
ATOM     14  H6  non d ame     -10.099  13.031  69.538  0.00  0.00     0.086 H 
BRANCH  13  15
ATOM     15  N2  non d ame     -11.142  14.567  68.668  0.00  0.00    -0.343 N 
ATOM     16  C5  non d ame      -9.980  15.435  68.875  0.00  0.00     0.273 C 
ATOM     17  O2  non d ame      -9.011  15.012  69.404  0.00  0.00    -0.266 OA
ATOM     18  H5  non d ame     -11.974  14.921  68.220  0.00  0.00     0.163 HD
BRANCH  16  19
ATOM     19  C4  non d ame     -10.018  16.898  68.404  0.00  0.00     0.154 A 
ATOM     20  C1  non d ame      -8.901  17.761  68.174  0.00  0.00    -0.017 A 
ATOM     21  C2  non d ame      -9.467  18.987  67.758  0.00  0.00     0.077 A 
ATOM     22  H1  non d ame      -7.840  17.534  68.290  0.00  0.00     0.091 H 
ATOM     23  O1  non d ame     -10.760  18.834  67.752  0.00  0.00    -0.218 OA
ATOM     24  N1  non d ame     -11.105  17.623  68.126  0.00  0.00    -0.123 NA
BRANCH  21  25
ATOM     25  C3  non d ame      -8.706  20.251  67.383  0.00  0.00    -0.029 C 
ATOM     26  H2  non d ame      -8.007  20.029  66.576  0.00  0.00     0.036 H 
ATOM     27  H3  non d ame      -9.410  21.014  67.054  0.00  0.00     0.036 H 
ATOM     28  H4  non d ame      -8.155  20.615  68.251  0.00  0.00     0.036 H 
ENDBRANCH  21  25
ENDBRANCH  16  19
ENDBRANCH  13  15
BRANCH  13  29
ATOM     29  C8  non d ame     -12.120  12.955  70.194  0.00  0.00    -0.049 C 
ATOM     30  H7  non d ame     -12.468  13.914  70.577  0.00  0.00     0.030 H 
ATOM     31  H8  non d ame     -12.964  12.402  69.778  0.00  0.00     0.030 H 
ATOM     32  H9  non d ame     -11.675  12.381  71.005  0.00  0.00     0.030 H 
ENDBRANCH  13  29
ENDBRANCH  10  13
ENDBRANCH   7   9
BRANCH   7  33
ATOM     33  C11 non d ame     -10.965  12.407  64.220  0.00  0.00    -0.033 C 
ATOM     34  H12 non d ame     -10.084  12.142  63.635  0.00  0.00     0.042 H 
BRANCH  33  35
ATOM     35  C12 non d ame     -12.220  12.076  63.353  0.00  0.00    -0.071 C 
ATOM     36  H13 non d ame     -12.144  11.055  62.979  0.00  0.00     0.028 H 
ATOM     37  H14 non d ame     -13.119  12.173  63.963  0.00  0.00     0.028 H 
ATOM     38  H15 non d ame     -12.275  12.769  62.514  0.00  0.00     0.028 H 
ENDBRANCH  33  35
BRANCH  33  39
ATOM     39  C13 non d ame     -10.889  13.933  64.546  0.00  0.00    -0.071 C 
ATOM     40  H16 non d ame     -10.272  14.434  63.800  0.00  0.00     0.028 H 
ATOM     41  H17 non d ame     -11.892  14.359  64.535  0.00  0.00     0.028 H 
ATOM     42  H18 non d ame     -10.447  14.070  65.533  0.00  0.00     0.028 H 
ENDBRANCH  33  39
ENDBRANCH   7  33
ENDBRANCH   4   7
ENDBRANCH   1   3
BRANCH   1  43
ATOM     43  C15 non d ame      -6.670   9.868  66.008  0.00  0.00     0.240 C 
ATOM     44  O5  non d ame      -5.620  10.424  66.064  0.00  0.00    -0.271 OA
ATOM     45  N6  non d ame      -7.208   9.177  67.214  0.00  0.00    -0.355 N 
ATOM     46  H46 non d ame      -8.100   8.704  67.179  0.00  0.00     0.162 HD
BRANCH  45  47
ATOM     47  C20 non d ame      -6.428   9.181  68.470  0.00  0.00     0.013 C 
ATOM     48  H30 non d ame      -5.380   9.339  68.214  0.00  0.00     0.072 H 
BRANCH  47  49
ATOM     49  C21 non d ame      -6.594   7.850  69.167  0.00  0.00    -0.038 C 
ATOM     50  H31 non d ame      -5.947   7.893  70.043  0.00  0.00     0.036 H 
ATOM     51  H32 non d ame      -7.670   7.714  69.289  0.00  0.00     0.036 H 
BRANCH  49  52
ATOM     52  C22 non d ame      -6.099   6.661  68.315  0.00  0.00     0.018 C 
ATOM     53  H33 non d ame      -5.620   7.103  67.441  0.00  0.00     0.048 H 
ATOM     54  H34 non d ame      -5.522   6.032  68.993  0.00  0.00     0.048 H 
BRANCH  52  55
ATOM     55  C23 non d ame      -7.244   5.764  67.767  0.00  0.00     0.259 C 
ATOM     56  O7  non d ame      -7.432   4.683  68.222  0.00  0.00    -0.265 OA
BRANCH  55  57
ATOM     57  O8  non d ame      -8.057   6.244  66.704  0.00  0.00    -0.317 OA
BRANCH  57  58
ATOM     58  C29 non d ame      -7.492   6.051  65.404  0.00  0.00     0.052 C 
ATOM     59  H47 non d ame      -7.400   7.046  64.971  0.00  0.00     0.082 H 
ATOM     60  H48 non d ame      -6.603   5.440  65.557  0.00  0.00     0.082 H 
BRANCH  58  61
ATOM     61  C35 non d ame      -8.506   5.238  64.557  0.00  0.00    -0.034 A 
ATOM     62  C30 non d ame      -9.532   4.536  65.182  0.00  0.00    -0.075 A 
ATOM     63  C31 non d ame     -10.443   3.806  64.421  0.00  0.00    -0.082 A 
ATOM     64  H49 non d ame      -9.621   4.559  66.267  0.00  0.00     0.084 H 
ATOM     65  C32 non d ame     -10.325   3.777  63.029  0.00  0.00    -0.083 A 
ATOM     66  H50 non d ame     -11.246   3.258  64.914  0.00  0.00     0.083 H 
ATOM     67  C33 non d ame      -9.298   4.476  62.409  0.00  0.00    -0.082 A 
ATOM     68  H51 non d ame     -11.033   3.208  62.426  0.00  0.00     0.083 H 
ATOM     69  C34 non d ame      -8.386   5.209  63.166  0.00  0.00    -0.075 A 
ATOM     70  H52 non d ame      -9.207   4.449  61.323  0.00  0.00     0.083 H 
ATOM     71  H53 non d ame      -7.583   5.757  62.671  0.00  0.00     0.084 H 
ENDBRANCH  58  61
ENDBRANCH  57  58
ENDBRANCH  55  57
ENDBRANCH  52  55
ENDBRANCH  49  52
ENDBRANCH  47  49
BRANCH  47  72
ATOM     72  C24 non d ame      -6.926  10.300  69.382  0.00  0.00    -0.039 C 
ATOM     73  H35 non d ame      -7.880  10.616  68.961  0.00  0.00     0.036 H 
ATOM     74  H36 non d ame      -6.885   9.891  70.392  0.00  0.00     0.036 H 
BRANCH  72  75
ATOM     75  C25 non d ame      -5.950  11.571  69.348  0.00  0.00    -0.001 C 
ATOM     76  C26 non d ame      -5.299  11.819  70.837  0.00  0.00    -0.035 C 
ATOM     77  C27 non d ame      -5.491  13.112  71.188  0.00  0.00     0.085 C 
ATOM     78  H38 non d ame      -5.863  11.265  71.588  0.00  0.00     0.036 H 
ATOM     79  H39 non d ame      -4.214  11.725  70.791  0.00  0.00     0.036 H 
ATOM     80  N5  non d ame      -6.496  13.688  70.220  0.00  0.00    -0.049 N 
ATOM     81  H40 non d ame      -5.933  13.082  72.184  0.00  0.00     0.075 H 
ATOM     82  H41 non d ame      -4.530  13.602  71.032  0.00  0.00     0.075 H 
ATOM     83  C28 non d ame      -6.586  12.638  68.996  0.00  0.00     0.193 C 
ATOM     84  H42 non d ame      -7.385  13.696  70.702  0.00  0.00     0.280 HD
ATOM     85  H43 non d ame      -6.102  14.551  69.876  0.00  0.00     0.280 HD
ATOM     86  H44 non d ame      -6.100  12.855  68.045  0.00  0.00     0.129 H 
ATOM     87  H37 non d ame      -5.261  11.539  68.504  0.00  0.00     0.046 H 
BRANCH  83  88
ATOM     88  O6  non d ame      -7.952  12.372  68.675  0.00  0.00    -0.369 OA
ATOM     89  H45 non d ame      -8.031  11.481  68.329  0.00  0.00     0.212 HD
ENDBRANCH  83  88
ENDBRANCH  72  75
ENDBRANCH  47  72
ENDBRANCH  45  47
ENDBRANCH   1  43
BRANCH   1  90
ATOM     90  C16 non d ame      -6.560  10.244  63.524  0.00  0.00    -0.035 C 
ATOM     91  H21 non d ame      -7.037  11.096  63.038  0.00  0.00     0.037 H 
ATOM     92  H22 non d ame      -5.570  10.353  63.966  0.00  0.00     0.037 H 
BRANCH  90  93
ATOM     93  C17 non d ame      -6.438   9.129  62.438  0.00  0.00    -0.059 C 
ATOM     94  H23 non d ame      -6.034   9.588  61.536  0.00  0.00     0.038 H 
BRANCH  93  95
ATOM     95  C18 non d ame      -5.463   7.988  62.870  0.00  0.00    -0.073 C 
ATOM     96  H24 non d ame      -6.024   7.061  63.001  0.00  0.00     0.028 H 
ATOM     97  H25 non d ame      -4.705   7.847  62.100  0.00  0.00     0.028 H 
ATOM     98  H26 non d ame      -4.981   8.257  63.809  0.00  0.00     0.028 H 
ENDBRANCH  93  95
BRANCH  93  99
ATOM     99  C19 non d ame      -7.815   8.563  62.080  0.00  0.00    -0.073 C 
ATOM    100  H27 non d ame      -8.546   9.371  62.061  0.00  0.00     0.028 H 
ATOM    101  H28 non d ame      -7.770   8.090  61.099  0.00  0.00     0.028 H 
ATOM    102  H29 non d ame      -8.110   7.825  62.826  0.00  0.00     0.028 H 
ENDBRANCH  93  99
ENDBRANCH  90  93
ENDBRANCH   1  90
TORSDOF 26
ENDMDL
MODEL 7
REMARK VINA RESULT:      -6.5      2.459      4.742
REMARK  26 active torsions:
REMARK  status: ('A' for Active; 'I' for Inactive)
REMARK    1  A    between atoms: C2_2  and  C3_3 
REMARK    2  A    between atoms: C4_6  and  C5_7 
REMARK       I    between atoms: C5_7  and  N2_9 
REMARK    3  A    between atoms: N2_9  and  C6_10 
REMARK    4  A    between atoms: C6_10  and  C7_11 
REMARK    5  A    between atoms: C6_10  and  C8_13 
REMARK       I    between atoms: C7_11  and  N3_14 
REMARK    6  A    between atoms: N3_14  and  C9_15 
REMARK    7  A    between atoms: C9_15  and  C10_16 
REMARK    8  A    between atoms: C9_15  and  C11_18 
REMARK       I    between atoms: C10_16  and  N4_21 
REMARK    9  A    between atoms: C11_18  and  C12_19 
REMARK   10  A    between atoms: C11_18  and  C13_20 
REMARK   11  A    between atoms: N4_21  and  C14_22 
REMARK   12  A    between atoms: C14_22  and  C15_23 
REMARK   13  A    between atoms: C14_22  and  C16_25 
REMARK       I    between atoms: C15_23  and  N6_40 
REMARK   14  A    between atoms: C16_25  and  C17_26 
REMARK   15  A    between atoms: C17_26  and  C18_27 
REMARK   16  A    between atoms: C17_26  and  C19_28 
REMARK   17  A    between atoms: C20_29  and  C21_30 
REMARK   18  A    between atoms: C20_29  and  C24_33 
REMARK   19  A    between atoms: C20_29  and  N6_40 
REMARK   20  A    between atoms: C21_30  and  C22_31 
REMARK   21  A    between atoms: C22_31  and  C23_32 
REMARK   22  A    between atoms: C23_32  and  O8_43 
REMARK   23  A    between atoms: C24_33  and  C25_34 
REMARK   24  A    between atoms: C28_38  and  O6_39 
REMARK   25  A    between atoms: C29_42  and  O8_43 
REMARK   26  A    between atoms: C29_42  and  C35_49 
ROOT
ATOM      1  C14 non d ame     -10.528   9.378  70.025  0.00  0.00     0.089 C 
ATOM      2  H20 non d ame     -10.791   8.474  69.477  0.00  0.00     0.087 H 
ENDROOT
BRANCH   1   3
ATOM      3  N4  non d ame      -9.138   9.685  69.726  0.00  0.00    -0.346 N 
ATOM      4  C10 non d ame      -8.170   8.579  69.387  0.00  0.00     0.241 C 
ATOM      5  O4  non d ame      -8.534   7.449  69.363  0.00  0.00    -0.271 OA
ATOM      6  H19 non d ame      -8.847  10.652  69.754  0.00  0.00     0.163 HD
BRANCH   4   7
ATOM      7  C9  non d ame      -6.736   8.914  69.075  0.00  0.00     0.092 C 
ATOM      8  H11 non d ame      -6.092   8.114  69.441  0.00  0.00     0.088 H 
BRANCH   7   9
ATOM      9  N3  non d ame      -6.554   8.982  67.621  0.00  0.00    -0.346 N 
ATOM     10  C7  non d ame      -5.909   7.898  66.923  0.00  0.00     0.240 C 
ATOM     11  O3  non d ame      -5.527   6.963  67.516  0.00  0.00    -0.271 OA
ATOM     12  H10 non d ame      -6.877   9.782  67.097  0.00  0.00     0.163 HD
BRANCH  10  13
ATOM     13  C6  non d ame      -5.716   7.978  65.377  0.00  0.00     0.086 C 
ATOM     14  H6  non d ame      -5.983   7.051  64.870  0.00  0.00     0.086 H 
BRANCH  13  15
ATOM     15  N2  non d ame      -6.593   9.009  64.846  0.00  0.00    -0.343 N 
ATOM     16  C5  non d ame      -7.915   8.638  64.337  0.00  0.00     0.273 C 
ATOM     17  O2  non d ame      -8.263   7.509  64.357  0.00  0.00    -0.266 OA
ATOM     18  H5  non d ame      -6.287   9.971  64.831  0.00  0.00     0.163 HD
BRANCH  16  19
ATOM     19  C4  non d ame      -8.854   9.718  63.774  0.00  0.00     0.154 A 
ATOM     20  C1  non d ame      -9.983  10.306  64.427  0.00  0.00    -0.017 A 
ATOM     21  C2  non d ame     -10.500  11.233  63.494  0.00  0.00     0.077 A 
ATOM     22  H1  non d ame     -10.370  10.094  65.424  0.00  0.00     0.091 H 
ATOM     23  O1  non d ame      -9.746  11.177  62.434  0.00  0.00    -0.218 OA
ATOM     24  N1  non d ame      -8.780  10.299  62.574  0.00  0.00    -0.123 NA
BRANCH  21  25
ATOM     25  C3  non d ame     -11.711  12.133  63.694  0.00  0.00    -0.029 C 
ATOM     26  H2  non d ame     -12.601  11.639  63.301  0.00  0.00     0.036 H 
ATOM     27  H3  non d ame     -11.846  12.330  64.758  0.00  0.00     0.036 H 
ATOM     28  H4  non d ame     -11.557  13.075  63.167  0.00  0.00     0.036 H 
ENDBRANCH  21  25
ENDBRANCH  16  19
ENDBRANCH  13  15
BRANCH  13  29
ATOM     29  C8  non d ame      -4.280   8.310  65.063  0.00  0.00    -0.049 C 
ATOM     30  H7  non d ame      -3.686   8.258  65.976  0.00  0.00     0.030 H 
ATOM     31  H8  non d ame      -3.893   7.595  64.336  0.00  0.00     0.030 H 
ATOM     32  H9  non d ame      -4.222   9.316  64.650  0.00  0.00     0.030 H 
ENDBRANCH  13  29
ENDBRANCH  10  13
ENDBRANCH   7   9
BRANCH   7  33
ATOM     33  C11 non d ame      -6.375  10.291  69.705  0.00  0.00    -0.033 C 
ATOM     34  H12 non d ame      -7.268  10.668  70.204  0.00  0.00     0.042 H 
BRANCH  33  35
ATOM     35  C12 non d ame      -5.260  10.146  70.786  0.00  0.00    -0.071 C 
ATOM     36  H13 non d ame      -5.023   9.091  70.925  0.00  0.00     0.028 H 
ATOM     37  H14 non d ame      -4.366  10.679  70.461  0.00  0.00     0.028 H 
ATOM     38  H15 non d ame      -5.610  10.568  71.728  0.00  0.00     0.028 H 
ENDBRANCH  33  35
BRANCH  33  39
ATOM     39  C13 non d ame      -5.966  11.320  68.603  0.00  0.00    -0.071 C 
ATOM     40  H16 non d ame      -6.795  12.003  68.418  0.00  0.00     0.028 H 
ATOM     41  H17 non d ame      -5.096  11.885  68.938  0.00  0.00     0.028 H 
ATOM     42  H18 non d ame      -5.722  10.788  67.684  0.00  0.00     0.028 H 
ENDBRANCH  33  39
ENDBRANCH   7  33
ENDBRANCH   4   7
ENDBRANCH   1   3
BRANCH   1  43
ATOM     43  C15 non d ame     -11.404  10.594  69.607  0.00  0.00     0.240 C 
ATOM     44  O5  non d ame     -12.008  10.563  68.583  0.00  0.00    -0.271 OA
ATOM     45  N6  non d ame     -11.498  11.794  70.487  0.00  0.00    -0.355 N 
ATOM     46  H46 non d ame     -10.994  11.830  71.361  0.00  0.00     0.162 HD
BRANCH  45  47
ATOM     47  C20 non d ame     -12.336  12.941  70.075  0.00  0.00     0.013 C 
ATOM     48  H30 non d ame     -12.989  12.606  69.269  0.00  0.00     0.072 H 
BRANCH  47  49
ATOM     49  C21 non d ame     -11.446  14.061  69.587  0.00  0.00    -0.038 C 
ATOM     50  H31 non d ame     -11.756  14.947  70.142  0.00  0.00     0.036 H 
ATOM     51  H32 non d ame     -10.425  13.688  69.682  0.00  0.00     0.036 H 
BRANCH  49  52
ATOM     52  C22 non d ame     -11.655  14.385  68.092  0.00  0.00     0.018 C 
ATOM     53  H33 non d ame     -12.485  13.758  67.767  0.00  0.00     0.048 H 
ATOM     54  H34 non d ame     -11.736  15.471  68.034  0.00  0.00     0.048 H 
BRANCH  52  55
ATOM     55  C23 non d ame     -10.448  13.996  67.193  0.00  0.00     0.259 C 
ATOM     56  O7  non d ame     -10.177  12.854  67.011  0.00  0.00    -0.265 OA
BRANCH  55  57
ATOM     57  O8  non d ame      -9.660  15.021  66.601  0.00  0.00    -0.317 OA
BRANCH  57  58
ATOM     58  C29 non d ame      -8.909  15.796  67.540  0.00  0.00     0.052 C 
ATOM     59  H47 non d ame      -9.199  15.430  68.524  0.00  0.00     0.082 H 
ATOM     60  H48 non d ame      -7.871  15.726  67.216  0.00  0.00     0.082 H 
BRANCH  58  61
ATOM     61  C35 non d ame      -9.364  17.275  67.413  0.00  0.00    -0.034 A 
ATOM     62  C30 non d ame     -10.080  17.689  66.295  0.00  0.00    -0.075 A 
ATOM     63  C31 non d ame     -10.488  19.017  66.180  0.00  0.00    -0.082 A 
ATOM     64  H49 non d ame     -10.321  16.975  65.509  0.00  0.00     0.084 H 
ATOM     65  C32 non d ame     -10.175  19.933  67.189  0.00  0.00    -0.083 A 
ATOM     66  H50 non d ame     -11.050  19.339  65.304  0.00  0.00     0.083 H 
ATOM     67  C33 non d ame      -9.457  19.515  68.301  0.00  0.00    -0.082 A 
ATOM     68  H51 non d ame     -10.490  20.973  67.107  0.00  0.00     0.083 H 
ATOM     69  C34 non d ame      -9.050  18.188  68.421  0.00  0.00    -0.075 A 
ATOM     70  H52 non d ame      -9.213  20.233  69.085  0.00  0.00     0.083 H 
ATOM     71  H53 non d ame      -8.487  17.867  69.299  0.00  0.00     0.084 H 
ENDBRANCH  58  61
ENDBRANCH  57  58
ENDBRANCH  55  57
ENDBRANCH  52  55
ENDBRANCH  49  52
ENDBRANCH  47  49
BRANCH  47  72
ATOM     72  C24 non d ame     -13.164  13.427  71.262  0.00  0.00    -0.039 C 
ATOM     73  H35 non d ame     -14.202  13.380  70.931  0.00  0.00     0.036 H 
ATOM     74  H36 non d ame     -12.836  12.827  72.111  0.00  0.00     0.036 H 
BRANCH  72  75
ATOM     75  C25 non d ame     -12.850  14.958  71.616  0.00  0.00    -0.001 C 
ATOM     76  C26 non d ame     -12.054  15.049  73.052  0.00  0.00    -0.035 C 
ATOM     77  C27 non d ame     -12.691  15.939  73.849  0.00  0.00     0.085 C 
ATOM     78  H38 non d ame     -12.150  14.108  73.593  0.00  0.00     0.036 H 
ATOM     79  H39 non d ame     -11.070  15.496  72.906  0.00  0.00     0.036 H 
ATOM     80  N5  non d ame     -14.032  16.220  73.214  0.00  0.00    -0.049 N 
ATOM     81  H40 non d ame     -12.848  15.423  74.796  0.00  0.00     0.075 H 
ATOM     82  H41 non d ame     -12.087  16.845  73.815  0.00  0.00     0.075 H 
ATOM     83  C28 non d ame     -13.938  15.649  71.707  0.00  0.00     0.193 C 
ATOM     84  H42 non d ame     -14.710  15.671  73.724  0.00  0.00     0.280 HD
ATOM     85  H43 non d ame     -14.125  17.224  73.172  0.00  0.00     0.280 HD
ATOM     86  H44 non d ame     -13.812  16.329  70.864  0.00  0.00     0.129 H 
ATOM     87  H37 non d ame     -12.417  15.496  70.773  0.00  0.00     0.046 H 
BRANCH  83  88
ATOM     88  O6  non d ame     -15.097  14.873  71.401  0.00  0.00    -0.369 OA
ATOM     89  H45 non d ame     -15.052  14.575  70.490  0.00  0.00     0.212 HD
ENDBRANCH  83  88
ENDBRANCH  72  75
ENDBRANCH  47  72
ENDBRANCH  45  47
ENDBRANCH   1  43
BRANCH   1  90
ATOM     90  C16 non d ame     -10.673   9.135  71.520  0.00  0.00    -0.035 C 
ATOM     91  H21 non d ame      -9.715   8.725  71.839  0.00  0.00     0.037 H 
ATOM     92  H22 non d ame     -11.027  10.079  71.933  0.00  0.00     0.037 H 
BRANCH  90  93
ATOM     93  C17 non d ame     -11.751   8.064  71.878  0.00  0.00    -0.059 C 
ATOM     94  H23 non d ame     -11.428   7.561  72.790  0.00  0.00     0.038 H 
BRANCH  93  95
ATOM     95  C18 non d ame     -13.149   8.702  72.155  0.00  0.00    -0.073 C 
ATOM     96  H24 non d ame     -13.910   7.922  72.163  0.00  0.00     0.028 H 
ATOM     97  H25 non d ame     -13.134   9.203  73.123  0.00  0.00     0.028 H 
ATOM     98  H26 non d ame     -13.379   9.428  71.375  0.00  0.00     0.028 H 
ENDBRANCH  93  95
BRANCH  93  99
ATOM     99  C19 non d ame     -11.847   6.997  70.783  0.00  0.00    -0.073 C 
ATOM    100  H27 non d ame     -12.454   6.165  71.139  0.00  0.00     0.028 H 
ATOM    101  H28 non d ame     -12.307   7.429  69.895  0.00  0.00     0.028 H 
ATOM    102  H29 non d ame     -10.848   6.639  70.538  0.00  0.00     0.028 H 
ENDBRANCH  93  99
ENDBRANCH  90  93
ENDBRANCH   1  90
TORSDOF 26
ENDMDL
MODEL 8
REMARK VINA RESULT:      -6.5      2.758      6.272
REMARK  26 active torsions:
REMARK  status: ('A' for Active; 'I' for Inactive)
REMARK    1  A    between atoms: C2_2  and  C3_3 
REMARK    2  A    between atoms: C4_6  and  C5_7 
REMARK       I    between atoms: C5_7  and  N2_9 
REMARK    3  A    between atoms: N2_9  and  C6_10 
REMARK    4  A    between atoms: C6_10  and  C7_11 
REMARK    5  A    between atoms: C6_10  and  C8_13 
REMARK       I    between atoms: C7_11  and  N3_14 
REMARK    6  A    between atoms: N3_14  and  C9_15 
REMARK    7  A    between atoms: C9_15  and  C10_16 
REMARK    8  A    between atoms: C9_15  and  C11_18 
REMARK       I    between atoms: C10_16  and  N4_21 
REMARK    9  A    between atoms: C11_18  and  C12_19 
REMARK   10  A    between atoms: C11_18  and  C13_20 
REMARK   11  A    between atoms: N4_21  and  C14_22 
REMARK   12  A    between atoms: C14_22  and  C15_23 
REMARK   13  A    between atoms: C14_22  and  C16_25 
REMARK       I    between atoms: C15_23  and  N6_40 
REMARK   14  A    between atoms: C16_25  and  C17_26 
REMARK   15  A    between atoms: C17_26  and  C18_27 
REMARK   16  A    between atoms: C17_26  and  C19_28 
REMARK   17  A    between atoms: C20_29  and  C21_30 
REMARK   18  A    between atoms: C20_29  and  C24_33 
REMARK   19  A    between atoms: C20_29  and  N6_40 
REMARK   20  A    between atoms: C21_30  and  C22_31 
REMARK   21  A    between atoms: C22_31  and  C23_32 
REMARK   22  A    between atoms: C23_32  and  O8_43 
REMARK   23  A    between atoms: C24_33  and  C25_34 
REMARK   24  A    between atoms: C28_38  and  O6_39 
REMARK   25  A    between atoms: C29_42  and  O8_43 
REMARK   26  A    between atoms: C29_42  and  C35_49 
ROOT
ATOM      1  C14 non d ame      -8.138   9.354  64.824  0.00  0.00     0.089 C 
ATOM      2  H20 non d ame      -7.847   9.418  65.872  0.00  0.00     0.087 H 
ENDROOT
BRANCH   1   3
ATOM      3  N4  non d ame      -8.412   7.955  64.529  0.00  0.00    -0.346 N 
ATOM      4  C10 non d ame      -7.655   6.864  65.243  0.00  0.00     0.241 C 
ATOM      5  O4  non d ame      -6.828   7.136  66.050  0.00  0.00    -0.271 OA
ATOM      6  H19 non d ame      -9.118   7.745  63.837  0.00  0.00     0.163 HD
BRANCH   4   7
ATOM      7  C9  non d ame      -7.955   5.422  64.930  0.00  0.00     0.092 C 
ATOM      8  H11 non d ame      -7.018   4.883  64.787  0.00  0.00     0.088 H 
BRANCH   7   9
ATOM      9  N3  non d ame      -8.638   4.805  66.071  0.00  0.00    -0.346 N 
ATOM     10  C7  non d ame      -7.896   3.993  67.003  0.00  0.00     0.240 C 
ATOM     11  O3  non d ame      -6.748   3.824  66.850  0.00  0.00    -0.271 OA
ATOM     12  H10 non d ame      -9.628   4.941  66.215  0.00  0.00     0.163 HD
BRANCH  10  13
ATOM     13  C6  non d ame      -8.630   3.337  68.213  0.00  0.00     0.086 C 
ATOM     14  H6  non d ame      -7.947   3.029  69.005  0.00  0.00     0.086 H 
BRANCH  13  15
ATOM     15  N2  non d ame      -9.534   4.312  68.801  0.00  0.00    -0.343 N 
ATOM     16  C5  non d ame      -9.028   5.250  69.807  0.00  0.00     0.273 C 
ATOM     17  O2  non d ame      -7.894   5.209  70.137  0.00  0.00    -0.266 OA
ATOM     18  H5  non d ame     -10.502   4.338  68.515  0.00  0.00     0.163 HD
BRANCH  16  19
ATOM     19  C4  non d ame      -9.972   6.287  70.435  0.00  0.00     0.154 A 
ATOM     20  C1  non d ame     -11.402   6.253  70.457  0.00  0.00    -0.017 A 
ATOM     21  C2  non d ame     -11.784   7.426  71.146  0.00  0.00     0.077 A 
ATOM     22  H1  non d ame     -12.063   5.494  70.036  0.00  0.00     0.091 H 
ATOM     23  O1  non d ame     -10.692   8.052  71.479  0.00  0.00    -0.218 OA
ATOM     24  N1  non d ame      -9.622   7.407  71.074  0.00  0.00    -0.123 NA
BRANCH  21  25
ATOM     25  C3  non d ame     -13.208   7.872  71.447  0.00  0.00    -0.029 C 
ATOM     26  H2  non d ame     -13.188   8.837  71.956  0.00  0.00     0.036 H 
ATOM     27  H3  non d ame     -13.764   7.966  70.514  0.00  0.00     0.036 H 
ATOM     28  H4  non d ame     -13.694   7.135  72.086  0.00  0.00     0.036 H 
ENDBRANCH  21  25
ENDBRANCH  16  19
ENDBRANCH  13  15
BRANCH  13  29
ATOM     29  C8  non d ame      -9.406   2.133  67.743  0.00  0.00    -0.049 C 
ATOM     30  H7  non d ame      -9.169   1.278  68.376  0.00  0.00     0.030 H 
ATOM     31  H8  non d ame     -10.474   2.344  67.802  0.00  0.00     0.030 H 
ATOM     32  H9  non d ame      -9.136   1.907  66.712  0.00  0.00     0.030 H 
ENDBRANCH  13  29
ENDBRANCH  10  13
ENDBRANCH   7   9
BRANCH   7  33
ATOM     33  C11 non d ame      -8.872   5.343  63.674  0.00  0.00    -0.033 C 
ATOM     34  H12 non d ame      -9.449   6.267  63.631  0.00  0.00     0.042 H 
BRANCH  33  35
ATOM     35  C12 non d ame      -8.033   5.252  62.362  0.00  0.00    -0.071 C 
ATOM     36  H13 non d ame      -7.890   6.252  61.953  0.00  0.00     0.028 H 
ATOM     37  H14 non d ame      -7.063   4.808  62.581  0.00  0.00     0.028 H 
ATOM     38  H15 non d ame      -8.561   4.633  61.637  0.00  0.00     0.028 H 
ENDBRANCH  33  35
BRANCH  33  39
ATOM     39  C13 non d ame      -9.876   4.151  63.789  0.00  0.00    -0.071 C 
ATOM     40  H16 non d ame     -10.138   3.996  64.835  0.00  0.00     0.028 H 
ATOM     41  H17 non d ame     -10.776   4.377  63.218  0.00  0.00     0.028 H 
ATOM     42  H18 non d ame      -9.411   3.248  63.394  0.00  0.00     0.028 H 
ENDBRANCH  33  39
ENDBRANCH   7  33
ENDBRANCH   4   7
ENDBRANCH   1   3
BRANCH   1  43
ATOM     43  C15 non d ame      -9.417  10.184  64.517  0.00  0.00     0.240 C 
ATOM     44  O5  non d ame     -10.005  10.010  63.498  0.00  0.00    -0.271 OA
ATOM     45  N6  non d ame      -9.915  11.191  65.497  0.00  0.00    -0.355 N 
ATOM     46  H46 non d ame      -9.427  11.345  66.367  0.00  0.00     0.162 HD
BRANCH  45  47
ATOM     47  C20 non d ame     -11.134  11.971  65.191  0.00  0.00     0.013 C 
ATOM     48  H30 non d ame     -11.759  11.371  64.529  0.00  0.00     0.072 H 
BRANCH  47  49
ATOM     49  C21 non d ame     -10.743  13.260  64.503  0.00  0.00    -0.038 C 
ATOM     50  H31 non d ame      -9.911  13.663  65.081  0.00  0.00     0.036 H 
ATOM     51  H32 non d ame     -10.602  13.001  63.452  0.00  0.00     0.036 H 
BRANCH  49  52
ATOM     52  C22 non d ame     -11.860  14.324  64.543  0.00  0.00     0.018 C 
ATOM     53  H33 non d ame     -12.292  14.339  63.542  0.00  0.00     0.048 H 
ATOM     54  H34 non d ame     -12.483  14.066  65.401  0.00  0.00     0.048 H 
BRANCH  52  55
ATOM     55  C23 non d ame     -11.342  15.765  64.807  0.00  0.00     0.259 C 
ATOM     56  O7  non d ame     -11.466  16.610  63.981  0.00  0.00    -0.265 OA
BRANCH  55  57
ATOM     57  O8  non d ame     -10.705  16.062  66.043  0.00  0.00    -0.317 OA
BRANCH  57  58
ATOM     58  C29 non d ame      -9.280  16.155  65.956  0.00  0.00     0.052 C 
ATOM     59  H47 non d ame      -8.895  15.262  66.447  0.00  0.00     0.082 H 
ATOM     60  H48 non d ame      -9.060  16.336  64.904  0.00  0.00     0.082 H 
BRANCH  58  61
ATOM     61  C35 non d ame      -8.831  17.397  66.772  0.00  0.00    -0.034 A 
ATOM     62  C30 non d ame      -7.857  17.268  67.757  0.00  0.00    -0.075 A 
ATOM     63  C31 non d ame      -7.454  18.383  68.490  0.00  0.00    -0.082 A 
ATOM     64  H49 non d ame      -7.411  16.294  67.955  0.00  0.00     0.084 H 
ATOM     65  C32 non d ame      -8.030  19.631  68.236  0.00  0.00    -0.083 A 
ATOM     66  H50 non d ame      -6.689  18.279  69.260  0.00  0.00     0.083 H 
ATOM     67  C33 non d ame      -9.003  19.754  67.254  0.00  0.00    -0.082 A 
ATOM     68  H51 non d ame      -7.720  20.508  68.804  0.00  0.00     0.083 H 
ATOM     69  C34 non d ame      -9.408  18.642  66.518  0.00  0.00    -0.075 A 
ATOM     70  H52 non d ame      -9.453  20.729  67.060  0.00  0.00     0.083 H 
ATOM     71  H53 non d ame     -10.173  18.748  65.747  0.00  0.00     0.084 H 
ENDBRANCH  58  61
ENDBRANCH  57  58
ENDBRANCH  55  57
ENDBRANCH  52  55
ENDBRANCH  49  52
ENDBRANCH  47  49
BRANCH  47  72
ATOM     72  C24 non d ame     -11.881  12.290  66.484  0.00  0.00    -0.039 C 
ATOM     73  H35 non d ame     -12.089  13.359  66.443  0.00  0.00     0.036 H 
ATOM     74  H36 non d ame     -12.704  11.576  66.527  0.00  0.00     0.036 H 
BRANCH  72  75
ATOM     75  C25 non d ame     -10.967  12.035  67.774  0.00  0.00    -0.001 C 
ATOM     76  C26 non d ame     -11.543  10.752  68.626  0.00  0.00    -0.035 C 
ATOM     77  C27 non d ame     -11.691  11.118  69.921  0.00  0.00     0.085 C 
ATOM     78  H38 non d ame     -12.560  10.521  68.310  0.00  0.00     0.036 H 
ATOM     79  H39 non d ame     -10.793   9.962  68.668  0.00  0.00     0.036 H 
ATOM     80  N5  non d ame     -11.578  12.623  69.971  0.00  0.00    -0.049 N 
ATOM     81  H40 non d ame     -12.706  10.829  70.193  0.00  0.00     0.075 H 
ATOM     82  H41 non d ame     -10.840  10.682  70.445  0.00  0.00     0.075 H 
ATOM     83  C28 non d ame     -10.954  13.068  68.549  0.00  0.00     0.193 C 
ATOM     84  H42 non d ame     -12.521  12.979  70.033  0.00  0.00     0.280 HD
ATOM     85  H43 non d ame     -10.909  12.836  70.696  0.00  0.00     0.280 HD
ATOM     86  H44 non d ame      -9.907  13.362  68.472  0.00  0.00     0.129 H 
ATOM     87  H37 non d ame      -9.904  12.033  67.534  0.00  0.00     0.046 H 
BRANCH  83  88
ATOM     88  O6  non d ame     -11.698  14.159  68.006  0.00  0.00    -0.369 OA
ATOM     89  H45 non d ame     -11.988  14.734  68.717  0.00  0.00     0.212 HD
ENDBRANCH  83  88
ENDBRANCH  72  75
ENDBRANCH  47  72
ENDBRANCH  45  47
ENDBRANCH   1  43
BRANCH   1  90
ATOM     90  C16 non d ame      -6.994   9.833  63.942  0.00  0.00    -0.035 C 
ATOM     91  H21 non d ame      -7.319  10.795  63.547  0.00  0.00     0.037 H 
ATOM     92  H22 non d ame      -6.104   9.773  64.567  0.00  0.00     0.037 H 
BRANCH  90  93
ATOM     93  C17 non d ame      -6.730   8.915  62.707  0.00  0.00    -0.059 C 
ATOM     94  H23 non d ame      -7.214   7.958  62.896  0.00  0.00     0.038 H 
BRANCH  93  95
ATOM     95  C18 non d ame      -7.335   9.504  61.394  0.00  0.00    -0.073 C 
ATOM     96  H24 non d ame      -6.953  10.514  61.238  0.00  0.00     0.028 H 
ATOM     97  H25 non d ame      -7.053   8.876  60.549  0.00  0.00     0.028 H 
ATOM     98  H26 non d ame      -8.421   9.535  61.475  0.00  0.00     0.028 H 
ENDBRANCH  93  95
BRANCH  93  99
ATOM     99  C19 non d ame      -5.232   8.641  62.541  0.00  0.00    -0.073 C 
ATOM    100  H27 non d ame      -5.089   7.828  61.830  0.00  0.00     0.028 H 
ATOM    101  H28 non d ame      -4.737   9.539  62.172  0.00  0.00     0.028 H 
ATOM    102  H29 non d ame      -4.806   8.360  63.504  0.00  0.00     0.028 H 
ENDBRANCH  93  99
ENDBRANCH  90  93
ENDBRANCH   1  90
TORSDOF 26
ENDMDL
MODEL 9
REMARK VINA RESULT:      -6.5      1.829      2.824
REMARK  26 active torsions:
REMARK  status: ('A' for Active; 'I' for Inactive)
REMARK    1  A    between atoms: C2_2  and  C3_3 
REMARK    2  A    between atoms: C4_6  and  C5_7 
REMARK       I    between atoms: C5_7  and  N2_9 
REMARK    3  A    between atoms: N2_9  and  C6_10 
REMARK    4  A    between atoms: C6_10  and  C7_11 
REMARK    5  A    between atoms: C6_10  and  C8_13 
REMARK       I    between atoms: C7_11  and  N3_14 
REMARK    6  A    between atoms: N3_14  and  C9_15 
REMARK    7  A    between atoms: C9_15  and  C10_16 
REMARK    8  A    between atoms: C9_15  and  C11_18 
REMARK       I    between atoms: C10_16  and  N4_21 
REMARK    9  A    between atoms: C11_18  and  C12_19 
REMARK   10  A    between atoms: C11_18  and  C13_20 
REMARK   11  A    between atoms: N4_21  and  C14_22 
REMARK   12  A    between atoms: C14_22  and  C15_23 
REMARK   13  A    between atoms: C14_22  and  C16_25 
REMARK       I    between atoms: C15_23  and  N6_40 
REMARK   14  A    between atoms: C16_25  and  C17_26 
REMARK   15  A    between atoms: C17_26  and  C18_27 
REMARK   16  A    between atoms: C17_26  and  C19_28 
REMARK   17  A    between atoms: C20_29  and  C21_30 
REMARK   18  A    between atoms: C20_29  and  C24_33 
REMARK   19  A    between atoms: C20_29  and  N6_40 
REMARK   20  A    between atoms: C21_30  and  C22_31 
REMARK   21  A    between atoms: C22_31  and  C23_32 
REMARK   22  A    between atoms: C23_32  and  O8_43 
REMARK   23  A    between atoms: C24_33  and  C25_34 
REMARK   24  A    between atoms: C28_38  and  O6_39 
REMARK   25  A    between atoms: C29_42  and  O8_43 
REMARK   26  A    between atoms: C29_42  and  C35_49 
ROOT
ATOM      1  C14 non d ame     -10.274  10.419  69.083  0.00  0.00     0.089 C 
ATOM      2  H20 non d ame      -9.847  10.566  70.075  0.00  0.00     0.087 H 
ENDROOT
BRANCH   1   3
ATOM      3  N4  non d ame     -11.028   9.175  69.110  0.00  0.00    -0.346 N 
ATOM      4  C10 non d ame     -11.105   8.357  70.375  0.00  0.00     0.241 C 
ATOM      5  O4  non d ame     -10.547   8.720  71.359  0.00  0.00    -0.271 OA
ATOM      6  H19 non d ame     -11.493   8.882  68.262  0.00  0.00     0.163 HD
BRANCH   4   7
ATOM      7  C9  non d ame     -11.895   7.076  70.387  0.00  0.00     0.092 C 
ATOM      8  H11 non d ame     -12.702   7.145  69.658  0.00  0.00     0.088 H 
BRANCH   7   9
ATOM      9  N3  non d ame     -11.032   5.965  69.973  0.00  0.00    -0.346 N 
ATOM     10  C7  non d ame     -10.760   5.745  68.575  0.00  0.00     0.240 C 
ATOM     11  O3  non d ame     -11.230   6.451  67.768  0.00  0.00    -0.271 OA
ATOM     12  H10 non d ame     -10.622   5.347  70.658  0.00  0.00     0.163 HD
BRANCH  10  13
ATOM     13  C6  non d ame      -9.844   4.560  68.141  0.00  0.00     0.086 C 
ATOM     14  H6  non d ame     -10.401   3.740  67.686  0.00  0.00     0.086 H 
BRANCH  13  15
ATOM     15  N2  non d ame      -8.906   5.032  67.136  0.00  0.00    -0.343 N 
ATOM     16  C5  non d ame      -9.182   4.785  65.719  0.00  0.00     0.273 C 
ATOM     17  O2  non d ame     -10.160   4.203  65.399  0.00  0.00    -0.266 OA
ATOM     18  H5  non d ame      -8.072   5.527  67.418  0.00  0.00     0.163 HD
BRANCH  16  19
ATOM     19  C4  non d ame      -8.201   5.281  64.645  0.00  0.00     0.154 A 
ATOM     20  C1  non d ame      -6.859   5.735  64.845  0.00  0.00    -0.017 A 
ATOM     21  C2  non d ame      -6.394   6.076  63.555  0.00  0.00     0.077 A 
ATOM     22  H1  non d ame      -6.306   5.808  65.782  0.00  0.00     0.091 H 
ATOM     23  O1  non d ame      -7.363   5.839  62.719  0.00  0.00    -0.218 OA
ATOM     24  N1  non d ame      -8.428   5.375  63.332  0.00  0.00    -0.123 NA
BRANCH  21  25
ATOM     25  C3  non d ame      -5.014   6.616  63.207  0.00  0.00    -0.029 C 
ATOM     26  H2  non d ame      -4.282   5.810  63.263  0.00  0.00     0.036 H 
ATOM     27  H3  non d ame      -5.028   7.025  62.197  0.00  0.00     0.036 H 
ATOM     28  H4  non d ame      -4.742   7.402  63.913  0.00  0.00     0.036 H 
ENDBRANCH  21  25
ENDBRANCH  16  19
ENDBRANCH  13  15
BRANCH  13  29
ATOM     29  C8  non d ame      -9.095   4.035  69.339  0.00  0.00    -0.049 C 
ATOM     30  H7  non d ame      -8.086   3.746  69.040  0.00  0.00     0.030 H 
ATOM     31  H8  non d ame      -9.039   4.812  70.102  0.00  0.00     0.030 H 
ATOM     32  H9  non d ame      -9.615   3.167  69.742  0.00  0.00     0.030 H 
ENDBRANCH  13  29
ENDBRANCH  10  13
ENDBRANCH   7   9
BRANCH   7  33
ATOM     33  C11 non d ame     -12.428   6.808  71.825  0.00  0.00    -0.033 C 
ATOM     34  H12 non d ame     -12.178   7.676  72.435  0.00  0.00     0.042 H 
BRANCH  33  35
ATOM     35  C12 non d ame     -13.981   6.656  71.837  0.00  0.00    -0.071 C 
ATOM     36  H13 non d ame     -14.286   5.984  71.036  0.00  0.00     0.028 H 
ATOM     37  H14 non d ame     -14.299   6.247  72.796  0.00  0.00     0.028 H 
ATOM     38  H15 non d ame     -14.441   7.633  71.689  0.00  0.00     0.028 H 
ENDBRANCH  33  35
BRANCH  33  39
ATOM     39  C13 non d ame     -11.732   5.559  72.455  0.00  0.00    -0.071 C 
ATOM     40  H16 non d ame     -10.745   5.430  72.012  0.00  0.00     0.028 H 
ATOM     41  H17 non d ame     -11.632   5.702  73.532  0.00  0.00     0.028 H 
ATOM     42  H18 non d ame     -12.335   4.672  72.261  0.00  0.00     0.028 H 
ENDBRANCH  33  39
ENDBRANCH   7  33
ENDBRANCH   4   7
ENDBRANCH   1   3
BRANCH   1  43
ATOM     43  C15 non d ame     -11.235  11.573  68.680  0.00  0.00     0.240 C 
ATOM     44  O5  non d ame     -12.314  11.320  68.247  0.00  0.00    -0.271 OA
ATOM     45  N6  non d ame     -10.817  12.994  68.842  0.00  0.00    -0.355 N 
ATOM     46  H46 non d ame      -9.905  13.222  69.213  0.00  0.00     0.162 HD
BRANCH  45  47
ATOM     47  C20 non d ame     -11.743  14.080  68.455  0.00  0.00     0.013 C 
ATOM     48  H30 non d ame     -12.728  13.640  68.298  0.00  0.00     0.072 H 
BRANCH  47  49
ATOM     49  C21 non d ame     -11.255  14.722  67.176  0.00  0.00    -0.038 C 
ATOM     50  H31 non d ame     -11.233  15.794  67.374  0.00  0.00     0.036 H 
ATOM     51  H32 non d ame     -10.336  14.196  66.915  0.00  0.00     0.036 H 
BRANCH  49  52
ATOM     52  C22 non d ame     -12.226  14.516  65.994  0.00  0.00     0.018 C 
ATOM     53  H33 non d ame     -13.228  14.575  66.420  0.00  0.00     0.048 H 
ATOM     54  H34 non d ame     -11.916  15.229  65.229  0.00  0.00     0.048 H 
BRANCH  52  55
ATOM     55  C23 non d ame     -12.123  13.111  65.337  0.00  0.00     0.259 C 
ATOM     56  O7  non d ame     -13.104  12.521  65.019  0.00  0.00    -0.265 OA
BRANCH  55  57
ATOM     57  O8  non d ame     -10.841  12.530  65.132  0.00  0.00    -0.317 OA
BRANCH  57  58
ATOM     58  C29 non d ame     -10.857  11.103  65.031  0.00  0.00     0.052 C 
ATOM     59  H47 non d ame     -10.628  10.733  66.030  0.00  0.00     0.082 H 
ATOM     60  H48 non d ame     -11.809  10.851  64.563  0.00  0.00     0.082 H 
BRANCH  58  61
ATOM     61  C35 non d ame      -9.712  10.677  64.075  0.00  0.00    -0.034 A 
ATOM     62  C30 non d ame      -9.459  11.412  62.921  0.00  0.00    -0.075 A 
ATOM     63  C31 non d ame      -8.430  11.030  62.062  0.00  0.00    -0.082 A 
ATOM     64  H49 non d ame     -10.066  12.286  62.691  0.00  0.00     0.084 H 
ATOM     65  C32 non d ame      -7.653   9.906  62.359  0.00  0.00    -0.083 A 
ATOM     66  H50 non d ame      -8.233  11.608  61.160  0.00  0.00     0.083 H 
ATOM     67  C33 non d ame      -7.911   9.174  63.510  0.00  0.00    -0.082 A 
ATOM     68  H51 non d ame      -6.847   9.600  61.693  0.00  0.00     0.083 H 
ATOM     69  C34 non d ame      -8.938   9.554  64.373  0.00  0.00    -0.075 A 
ATOM     70  H52 non d ame      -7.305   8.297  63.738  0.00  0.00     0.083 H 
ATOM     71  H53 non d ame      -9.133   8.974  65.276  0.00  0.00     0.084 H 
ENDBRANCH  58  61
ENDBRANCH  57  58
ENDBRANCH  55  57
ENDBRANCH  52  55
ENDBRANCH  49  52
ENDBRANCH  47  49
BRANCH  47  72
ATOM     72  C24 non d ame     -11.800  15.129  69.563  0.00  0.00    -0.039 C 
ATOM     73  H35 non d ame     -10.820  15.605  69.564  0.00  0.00     0.036 H 
ATOM     74  H36 non d ame     -12.693  15.721  69.358  0.00  0.00     0.036 H 
BRANCH  72  75
ATOM     75  C25 non d ame     -12.001  14.458  71.004  0.00  0.00    -0.001 C 
ATOM     76  C26 non d ame     -13.479  13.743  71.090  0.00  0.00    -0.035 C 
ATOM     77  C27 non d ame     -14.110  14.177  72.206  0.00  0.00     0.085 C 
ATOM     78  H38 non d ame     -14.115  14.103  70.281  0.00  0.00     0.036 H 
ATOM     79  H39 non d ame     -13.367  12.672  71.260  0.00  0.00     0.036 H 
ATOM     80  N5  non d ame     -13.335  15.367  72.718  0.00  0.00    -0.049 N 
ATOM     81  H40 non d ame     -15.094  14.510  71.875  0.00  0.00     0.075 H 
ATOM     82  H41 non d ame     -14.023  13.363  72.925  0.00  0.00     0.075 H 
ATOM     83  C28 non d ame     -11.917  15.339  71.945  0.00  0.00     0.193 C 
ATOM     84  H42 non d ame     -13.844  16.189  72.424  0.00  0.00     0.280 HD
ATOM     85  H43 non d ame     -13.169  15.201  73.700  0.00  0.00     0.280 HD
ATOM     86  H44 non d ame     -11.015  15.000  72.456  0.00  0.00     0.129 H 
ATOM     87  H37 non d ame     -11.141  13.858  71.303  0.00  0.00     0.046 H 
BRANCH  83  88
ATOM     88  O6  non d ame     -11.605  16.639  71.442  0.00  0.00    -0.369 OA
ATOM     89  H45 non d ame     -12.410  17.070  71.149  0.00  0.00     0.212 HD
ENDBRANCH  83  88
ENDBRANCH  72  75
ENDBRANCH  47  72
ENDBRANCH  45  47
ENDBRANCH   1  43
BRANCH   1  90
ATOM     90  C16 non d ame      -9.158  10.301  68.056  0.00  0.00    -0.035 C 
ATOM     91  H21 non d ame      -9.597   9.765  67.214  0.00  0.00     0.037 H 
ATOM     92  H22 non d ame      -8.783  11.314  67.920  0.00  0.00     0.037 H 
BRANCH  90  93
ATOM     93  C17 non d ame      -7.948   9.442  68.542  0.00  0.00    -0.059 C 
ATOM     94  H23 non d ame      -8.294   8.414  68.649  0.00  0.00     0.038 H 
BRANCH  93  95
ATOM     95  C18 non d ame      -6.772   9.444  67.514  0.00  0.00    -0.073 C 
ATOM     96  H24 non d ame      -7.170   9.571  66.507  0.00  0.00     0.028 H 
ATOM     97  H25 non d ame      -6.092  10.266  67.741  0.00  0.00     0.028 H 
ATOM     98  H26 non d ame      -6.233   8.499  67.576  0.00  0.00     0.028 H 
ENDBRANCH  93  95
BRANCH  93  99
ATOM     99  C19 non d ame      -7.468   9.905  69.920  0.00  0.00    -0.073 C 
ATOM    100  H27 non d ame      -7.453  10.995  69.952  0.00  0.00     0.028 H 
ATOM    101  H28 non d ame      -8.145   9.528  70.686  0.00  0.00     0.028 H 
ATOM    102  H29 non d ame      -6.464   9.523  70.102  0.00  0.00     0.028 H 
ENDBRANCH  93  99
ENDBRANCH  90  93
ENDBRANCH   1  90
TORSDOF 26
ENDMDL
MODEL 10
REMARK VINA RESULT:      -6.4      2.282      5.089
REMARK  26 active torsions:
REMARK  status: ('A' for Active; 'I' for Inactive)
REMARK    1  A    between atoms: C2_2  and  C3_3 
REMARK    2  A    between atoms: C4_6  and  C5_7 
REMARK       I    between atoms: C5_7  and  N2_9 
REMARK    3  A    between atoms: N2_9  and  C6_10 
REMARK    4  A    between atoms: C6_10  and  C7_11 
REMARK    5  A    between atoms: C6_10  and  C8_13 
REMARK       I    between atoms: C7_11  and  N3_14 
REMARK    6  A    between atoms: N3_14  and  C9_15 
REMARK    7  A    between atoms: C9_15  and  C10_16 
REMARK    8  A    between atoms: C9_15  and  C11_18 
REMARK       I    between atoms: C10_16  and  N4_21 
REMARK    9  A    between atoms: C11_18  and  C12_19 
REMARK   10  A    between atoms: C11_18  and  C13_20 
REMARK   11  A    between atoms: N4_21  and  C14_22 
REMARK   12  A    between atoms: C14_22  and  C15_23 
REMARK   13  A    between atoms: C14_22  and  C16_25 
REMARK       I    between atoms: C15_23  and  N6_40 
REMARK   14  A    between atoms: C16_25  and  C17_26 
REMARK   15  A    between atoms: C17_26  and  C18_27 
REMARK   16  A    between atoms: C17_26  and  C19_28 
REMARK   17  A    between atoms: C20_29  and  C21_30 
REMARK   18  A    between atoms: C20_29  and  C24_33 
REMARK   19  A    between atoms: C20_29  and  N6_40 
REMARK   20  A    between atoms: C21_30  and  C22_31 
REMARK   21  A    between atoms: C22_31  and  C23_32 
REMARK   22  A    between atoms: C23_32  and  O8_43 
REMARK   23  A    between atoms: C24_33  and  C25_34 
REMARK   24  A    between atoms: C28_38  and  O6_39 
REMARK   25  A    between atoms: C29_42  and  O8_43 
REMARK   26  A    between atoms: C29_42  and  C35_49 
ROOT
ATOM      1  C14 non d ame     -10.787   8.879  69.306  0.00  0.00     0.089 C 
ATOM      2  H20 non d ame     -11.838   8.601  69.241  0.00  0.00     0.087 H 
ENDROOT
BRANCH   1   3
ATOM      3  N4  non d ame     -10.003   7.655  69.228  0.00  0.00    -0.346 N 
ATOM      4  C10 non d ame     -10.671   6.312  69.384  0.00  0.00     0.241 C 
ATOM      5  O4  non d ame     -11.841   6.242  69.575  0.00  0.00    -0.271 OA
ATOM      6  H19 non d ame      -9.009   7.737  69.067  0.00  0.00     0.163 HD
BRANCH   4   7
ATOM      7  C9  non d ame      -9.847   5.055  69.295  0.00  0.00     0.092 C 
ATOM      8  H11 non d ame     -10.482   4.231  68.970  0.00  0.00     0.088 H 
BRANCH   7   9
ATOM      9  N3  non d ame      -8.805   5.225  68.277  0.00  0.00    -0.346 N 
ATOM     10  C7  non d ame      -8.838   4.435  67.072  0.00  0.00     0.240 C 
ATOM     11  O3  non d ame      -9.696   3.655  66.905  0.00  0.00    -0.271 OA
ATOM     12  H10 non d ame      -8.058   5.892  68.409  0.00  0.00     0.163 HD
BRANCH  10  13
ATOM     13  C6  non d ame      -7.725   4.618  65.995  0.00  0.00     0.086 C 
ATOM     14  H6  non d ame      -7.905   4.027  65.096  0.00  0.00     0.086 H 
BRANCH  13  15
ATOM     15  N2  non d ame      -7.697   6.010  65.578  0.00  0.00    -0.343 N 
ATOM     16  C5  non d ame      -7.854   6.341  64.160  0.00  0.00     0.273 C 
ATOM     17  O2  non d ame      -7.999   5.481  63.363  0.00  0.00    -0.266 OA
ATOM     18  H5  non d ame      -7.570   6.739  66.265  0.00  0.00     0.163 HD
BRANCH  16  19
ATOM     19  C4  non d ame      -7.829   7.809  63.705  0.00  0.00     0.154 A 
ATOM     20  C1  non d ame      -7.873   8.298  62.360  0.00  0.00    -0.017 A 
ATOM     21  C2  non d ame      -7.824   9.704  62.483  0.00  0.00     0.077 A 
ATOM     22  H1  non d ame      -7.930   7.721  61.437  0.00  0.00     0.091 H 
ATOM     23  O1  non d ame      -7.762   9.981  63.754  0.00  0.00    -0.218 OA
ATOM     24  N1  non d ame      -7.763   8.890  64.486  0.00  0.00    -0.123 NA
BRANCH  21  25
ATOM     25  C3  non d ame      -7.844  10.710  61.341  0.00  0.00    -0.029 C 
ATOM     26  H2  non d ame      -7.198  11.554  61.587  0.00  0.00     0.036 H 
ATOM     27  H3  non d ame      -7.485  10.232  60.430  0.00  0.00     0.036 H 
ATOM     28  H4  non d ame      -8.863  11.066  61.186  0.00  0.00     0.036 H 
ENDBRANCH  21  25
ENDBRANCH  16  19
ENDBRANCH  13  15
BRANCH  13  29
ATOM     29  C8  non d ame      -6.390   4.227  66.575  0.00  0.00    -0.049 C 
ATOM     30  H7  non d ame      -5.680   4.047  65.768  0.00  0.00     0.030 H 
ATOM     31  H8  non d ame      -6.020   5.033  67.211  0.00  0.00     0.030 H 
ATOM     32  H9  non d ame      -6.502   3.320  67.167  0.00  0.00     0.030 H 
ENDBRANCH  13  29
ENDBRANCH  10  13
ENDBRANCH   7   9
BRANCH   7  33
ATOM     33  C11 non d ame      -9.181   4.772  70.674  0.00  0.00    -0.033 C 
ATOM     34  H12 non d ame      -8.437   5.550  70.845  0.00  0.00     0.042 H 
BRANCH  33  35
ATOM     35  C12 non d ame     -10.221   4.854  71.834  0.00  0.00    -0.071 C 
ATOM     36  H13 non d ame     -10.574   5.880  71.934  0.00  0.00     0.028 H 
ATOM     37  H14 non d ame     -11.064   4.199  71.614  0.00  0.00     0.028 H 
ATOM     38  H15 non d ame      -9.750   4.538  72.765  0.00  0.00     0.028 H 
ENDBRANCH  33  35
BRANCH  33  39
ATOM     39  C13 non d ame      -8.446   3.393  70.667  0.00  0.00    -0.071 C 
ATOM     40  H16 non d ame      -7.383   3.547  70.851  0.00  0.00     0.028 H 
ATOM     41  H17 non d ame      -8.862   2.755  71.447  0.00  0.00     0.028 H 
ATOM     42  H18 non d ame      -8.581   2.916  69.697  0.00  0.00     0.028 H 
ENDBRANCH  33  39
ENDBRANCH   7  33
ENDBRANCH   4   7
ENDBRANCH   1   3
BRANCH   1  43
ATOM     43  C15 non d ame     -10.355   9.818  68.143  0.00  0.00     0.240 C 
ATOM     44  O5  non d ame      -9.839   9.361  67.174  0.00  0.00    -0.271 OA
ATOM     45  N6  non d ame     -10.592  11.287  68.233  0.00  0.00    -0.355 N 
ATOM     46  H46 non d ame     -11.033  11.686  69.049  0.00  0.00     0.162 HD
BRANCH  45  47
ATOM     47  C20 non d ame     -10.177  12.166  67.119  0.00  0.00     0.013 C 
ATOM     48  H30 non d ame      -9.881  11.531  66.284  0.00  0.00     0.072 H 
BRANCH  47  49
ATOM     49  C21 non d ame      -9.007  13.016  67.561  0.00  0.00    -0.038 C 
ATOM     50  H31 non d ame      -8.221  12.314  67.841  0.00  0.00     0.036 H 
ATOM     51  H32 non d ame      -8.840  13.729  66.753  0.00  0.00     0.036 H 
BRANCH  49  52
ATOM     52  C22 non d ame      -9.316  13.851  68.823  0.00  0.00     0.018 C 
ATOM     53  H33 non d ame     -10.331  13.578  69.117  0.00  0.00     0.048 H 
ATOM     54  H34 non d ame      -8.485  13.674  69.505  0.00  0.00     0.048 H 
BRANCH  52  55
ATOM     55  C23 non d ame      -9.344  15.384  68.567  0.00  0.00     0.259 C 
ATOM     56  O7  non d ame      -8.633  15.871  67.749  0.00  0.00    -0.265 OA
BRANCH  55  57
ATOM     57  O8  non d ame     -10.219  16.203  69.332  0.00  0.00    -0.317 OA
BRANCH  57  58
ATOM     58  C29 non d ame     -11.605  15.886  69.171  0.00  0.00     0.052 C 
ATOM     59  H47 non d ame     -12.100  16.831  68.949  0.00  0.00     0.082 H 
ATOM     60  H48 non d ame     -11.638  15.071  68.448  0.00  0.00     0.082 H 
BRANCH  58  61
ATOM     61  C35 non d ame     -12.137  15.360  70.529  0.00  0.00    -0.034 A 
ATOM     62  C30 non d ame     -12.737  14.107  70.604  0.00  0.00    -0.075 A 
ATOM     63  C31 non d ame     -13.216  13.634  71.825  0.00  0.00    -0.082 A 
ATOM     64  H49 non d ame     -12.832  13.496  69.707  0.00  0.00     0.084 H 
ATOM     65  C32 non d ame     -13.095  14.420  72.974  0.00  0.00    -0.083 A 
ATOM     66  H50 non d ame     -13.684  12.651  71.880  0.00  0.00     0.083 H 
ATOM     67  C33 non d ame     -12.498  15.671  72.894  0.00  0.00    -0.082 A 
ATOM     68  H51 non d ame     -13.466  14.057  73.932  0.00  0.00     0.083 H 
ATOM     69  C34 non d ame     -12.016  16.146  71.676  0.00  0.00    -0.075 A 
ATOM     70  H52 non d ame     -12.407  16.283  73.792  0.00  0.00     0.083 H 
ATOM     71  H53 non d ame     -11.548  17.130  71.622  0.00  0.00     0.084 H 
ENDBRANCH  58  61
ENDBRANCH  57  58
ENDBRANCH  55  57
ENDBRANCH  52  55
ENDBRANCH  49  52
ENDBRANCH  47  49
BRANCH  47  72
ATOM     72  C24 non d ame     -11.339  13.069  66.713  0.00  0.00    -0.039 C 
ATOM     73  H35 non d ame     -12.071  12.980  67.517  0.00  0.00     0.036 H 
ATOM     74  H36 non d ame     -10.891  14.037  66.490  0.00  0.00     0.036 H 
BRANCH  72  75
ATOM     75  C25 non d ame     -12.048  12.556  65.371  0.00  0.00    -0.001 C 
ATOM     76  C26 non d ame     -11.261  11.234  64.791  0.00  0.00    -0.035 C 
ATOM     77  C27 non d ame     -10.970  11.436  63.484  0.00  0.00     0.085 C 
ATOM     78  H38 non d ame     -10.280  11.148  65.260  0.00  0.00     0.036 H 
ATOM     79  H39 non d ame     -11.933  10.376  64.773  0.00  0.00     0.036 H 
ATOM     80  N5  non d ame     -11.195  12.902  63.204  0.00  0.00    -0.049 N 
ATOM     81  H40 non d ame      -9.907  11.214  63.384  0.00  0.00     0.075 H 
ATOM     82  H41 non d ame     -11.704  10.853  62.929  0.00  0.00     0.075 H 
ATOM     83  C28 non d ame     -12.038  13.470  64.459  0.00  0.00     0.193 C 
ATOM     84  H42 non d ame     -10.283  13.338  63.206  0.00  0.00     0.280 HD
ATOM     85  H43 non d ame     -11.775  12.951  62.379  0.00  0.00     0.280 HD
ATOM     86  H44 non d ame     -13.106  13.668  64.364  0.00  0.00     0.129 H 
ATOM     87  H37 non d ame     -13.130  12.481  65.478  0.00  0.00     0.046 H 
BRANCH  83  88
ATOM     88  O6  non d ame     -11.464  14.692  64.925  0.00  0.00    -0.369 OA
ATOM     89  H45 non d ame     -11.510  14.721  65.883  0.00  0.00     0.212 HD
ENDBRANCH  83  88
ENDBRANCH  72  75
ENDBRANCH  47  72
ENDBRANCH  45  47
ENDBRANCH   1  43
BRANCH   1  90
ATOM     90  C16 non d ame     -10.515   9.558  70.639  0.00  0.00    -0.035 C 
ATOM     91  H21 non d ame      -9.760   8.942  71.128  0.00  0.00     0.037 H 
ATOM     92  H22 non d ame     -10.295  10.596  70.394  0.00  0.00     0.037 H 
BRANCH  90  93
ATOM     93  C17 non d ame     -11.751   9.581  71.593  0.00  0.00    -0.059 C 
ATOM     94  H23 non d ame     -11.560  10.328  72.364  0.00  0.00     0.038 H 
BRANCH  93  95
ATOM     95  C18 non d ame     -13.063   9.987  70.851  0.00  0.00    -0.073 C 
ATOM     96  H24 non d ame     -13.767  10.415  71.565  0.00  0.00     0.028 H 
ATOM     97  H25 non d ame     -12.832  10.726  70.083  0.00  0.00     0.028 H 
ATOM     98  H26 non d ame     -13.506   9.107  70.386  0.00  0.00     0.028 H 
ENDBRANCH  93  95
BRANCH  93  99
ATOM     99  C19 non d ame     -11.920   8.234  72.301  0.00  0.00    -0.073 C 
ATOM    100  H27 non d ame     -12.258   8.401  73.324  0.00  0.00     0.028 H 
ATOM    101  H28 non d ame     -12.657   7.633  71.767  0.00  0.00     0.028 H 
ATOM    102  H29 non d ame     -10.965   7.709  72.315  0.00  0.00     0.028 H 
ENDBRANCH  93  99
ENDBRANCH  90  93
ENDBRANCH   1  90
TORSDOF 26
ENDMDL
MODEL 11
REMARK VINA RESULT:      -6.4      2.411      9.303
REMARK  26 active torsions:
REMARK  status: ('A' for Active; 'I' for Inactive)
REMARK    1  A    between atoms: C2_2  and  C3_3 
REMARK    2  A    between atoms: C4_6  and  C5_7 
REMARK       I    between atoms: C5_7  and  N2_9 
REMARK    3  A    between atoms: N2_9  and  C6_10 
REMARK    4  A    between atoms: C6_10  and  C7_11 
REMARK    5  A    between atoms: C6_10  and  C8_13 
REMARK       I    between atoms: C7_11  and  N3_14 
REMARK    6  A    between atoms: N3_14  and  C9_15 
REMARK    7  A    between atoms: C9_15  and  C10_16 
REMARK    8  A    between atoms: C9_15  and  C11_18 
REMARK       I    between atoms: C10_16  and  N4_21 
REMARK    9  A    between atoms: C11_18  and  C12_19 
REMARK   10  A    between atoms: C11_18  and  C13_20 
REMARK   11  A    between atoms: N4_21  and  C14_22 
REMARK   12  A    between atoms: C14_22  and  C15_23 
REMARK   13  A    between atoms: C14_22  and  C16_25 
REMARK       I    between atoms: C15_23  and  N6_40 
REMARK   14  A    between atoms: C16_25  and  C17_26 
REMARK   15  A    between atoms: C17_26  and  C18_27 
REMARK   16  A    between atoms: C17_26  and  C19_28 
REMARK   17  A    between atoms: C20_29  and  C21_30 
REMARK   18  A    between atoms: C20_29  and  C24_33 
REMARK   19  A    between atoms: C20_29  and  N6_40 
REMARK   20  A    between atoms: C21_30  and  C22_31 
REMARK   21  A    between atoms: C22_31  and  C23_32 
REMARK   22  A    between atoms: C23_32  and  O8_43 
REMARK   23  A    between atoms: C24_33  and  C25_34 
REMARK   24  A    between atoms: C28_38  and  O6_39 
REMARK   25  A    between atoms: C29_42  and  O8_43 
REMARK   26  A    between atoms: C29_42  and  C35_49 
ROOT
ATOM      1  C14 non d ame      -7.363   9.835  66.044  0.00  0.00     0.089 C 
ATOM      2  H20 non d ame      -7.575   9.111  65.257  0.00  0.00     0.087 H 
ENDROOT
BRANCH   1   3
ATOM      3  N4  non d ame      -8.257  10.967  65.852  0.00  0.00    -0.346 N 
ATOM      4  C10 non d ame      -9.695  10.743  65.455  0.00  0.00     0.241 C 
ATOM      5  O4  non d ame     -10.108   9.642  65.293  0.00  0.00    -0.271 OA
ATOM      6  H19 non d ame      -7.885  11.896  65.992  0.00  0.00     0.163 HD
BRANCH   4   7
ATOM      7  C9  non d ame     -10.608  11.925  65.267  0.00  0.00     0.092 C 
ATOM      8  H11 non d ame     -11.601  11.675  65.641  0.00  0.00     0.088 H 
BRANCH   7   9
ATOM      9  N3  non d ame     -10.119  13.054  66.064  0.00  0.00    -0.346 N 
ATOM     10  C7  non d ame     -10.930  13.593  67.127  0.00  0.00     0.240 C 
ATOM     11  O3  non d ame     -11.982  13.131  67.354  0.00  0.00    -0.271 OA
ATOM     12  H10 non d ame      -9.215  13.464  65.878  0.00  0.00     0.163 HD
BRANCH  10  13
ATOM     13  C6  non d ame     -10.405  14.796  67.969  0.00  0.00     0.086 C 
ATOM     14  H6  non d ame     -10.831  15.749  67.655  0.00  0.00     0.086 H 
BRANCH  13  15
ATOM     15  N2  non d ame     -10.791  14.604  69.357  0.00  0.00    -0.343 N 
ATOM     16  C5  non d ame     -11.839  15.448  69.937  0.00  0.00     0.273 C 
ATOM     17  O2  non d ame     -12.362  16.279  69.279  0.00  0.00    -0.266 OA
ATOM     18  H5  non d ame     -10.337  13.893  69.912  0.00  0.00     0.163 HD
BRANCH  16  19
ATOM     19  C4  non d ame     -12.259  15.255  71.402  0.00  0.00     0.154 A 
ATOM     20  C1  non d ame     -11.948  16.106  72.510  0.00  0.00    -0.017 A 
ATOM     21  C2  non d ame     -12.562  15.492  73.624  0.00  0.00     0.077 A 
ATOM     22  H1  non d ame     -11.366  17.028  72.506  0.00  0.00     0.091 H 
ATOM     23  O1  non d ame     -13.155  14.415  73.195  0.00  0.00    -0.218 OA
ATOM     24  N1  non d ame     -12.991  14.255  71.902  0.00  0.00    -0.123 NA
BRANCH  21  25
ATOM     25  C3  non d ame     -12.537  15.997  75.060  0.00  0.00    -0.029 C 
ATOM     26  H2  non d ame     -11.515  15.966  75.440  0.00  0.00     0.036 H 
ATOM     27  H3  non d ame     -12.904  17.023  75.090  0.00  0.00     0.036 H 
ATOM     28  H4  non d ame     -13.174  15.366  75.680  0.00  0.00     0.036 H 
ENDBRANCH  21  25
ENDBRANCH  16  19
ENDBRANCH  13  15
BRANCH  13  29
ATOM     29  C8  non d ame      -8.903  14.874  67.857  0.00  0.00    -0.049 C 
ATOM     30  H7  non d ame      -8.460  14.797  68.850  0.00  0.00     0.030 H 
ATOM     31  H8  non d ame      -8.542  14.054  67.234  0.00  0.00     0.030 H 
ATOM     32  H9  non d ame      -8.621  15.824  67.407  0.00  0.00     0.030 H 
ENDBRANCH  13  29
ENDBRANCH  10  13
ENDBRANCH   7   9
BRANCH   7  33
ATOM     33  C11 non d ame     -10.634  12.327  63.763  0.00  0.00    -0.033 C 
ATOM     34  H12 non d ame     -10.238  13.340  63.687  0.00  0.00     0.042 H 
BRANCH  33  35
ATOM     35  C12 non d ame      -9.713  11.398  62.911  0.00  0.00    -0.071 C 
ATOM     36  H13 non d ame      -8.675  11.710  63.028  0.00  0.00     0.028 H 
ATOM     37  H14 non d ame      -9.823  10.368  63.249  0.00  0.00     0.028 H 
ATOM     38  H15 non d ame      -9.999  11.468  61.862  0.00  0.00     0.028 H 
ENDBRANCH  33  35
BRANCH  33  39
ATOM     39  C13 non d ame     -12.095  12.336  63.211  0.00  0.00    -0.071 C 
ATOM     40  H16 non d ame     -12.633  13.190  63.621  0.00  0.00     0.028 H 
ATOM     41  H17 non d ame     -12.073  12.408  62.123  0.00  0.00     0.028 H 
ATOM     42  H18 non d ame     -12.599  11.415  63.504  0.00  0.00     0.028 H 
ENDBRANCH  33  39
ENDBRANCH   7  33
ENDBRANCH   4   7
ENDBRANCH   1   3
BRANCH   1  43
ATOM     43  C15 non d ame      -7.605   9.248  67.464  0.00  0.00     0.240 C 
ATOM     44  O5  non d ame      -6.890   9.559  68.362  0.00  0.00    -0.271 OA
ATOM     45  N6  non d ame      -8.732   8.305  67.708  0.00  0.00    -0.355 N 
ATOM     46  H46 non d ame      -9.349   8.036  66.954  0.00  0.00     0.162 HD
BRANCH  45  47
ATOM     47  C20 non d ame      -8.950   7.756  69.064  0.00  0.00     0.013 C 
ATOM     48  H30 non d ame      -8.284   8.282  69.748  0.00  0.00     0.072 H 
BRANCH  47  49
ATOM     49  C21 non d ame      -8.627   6.279  69.063  0.00  0.00    -0.038 C 
ATOM     50  H31 non d ame      -9.499   5.787  69.494  0.00  0.00     0.036 H 
ATOM     51  H32 non d ame      -8.317   6.046  68.044  0.00  0.00     0.036 H 
BRANCH  49  52
ATOM     52  C22 non d ame      -7.431   5.926  69.974  0.00  0.00     0.018 C 
ATOM     53  H33 non d ame      -7.111   6.868  70.420  0.00  0.00     0.048 H 
ATOM     54  H34 non d ame      -7.775   5.110  70.610  0.00  0.00     0.048 H 
BRANCH  52  55
ATOM     55  C23 non d ame      -6.198   5.379  69.202  0.00  0.00     0.259 C 
ATOM     56  O7  non d ame      -5.185   5.144  69.776  0.00  0.00    -0.265 OA
BRANCH  55  57
ATOM     57  O8  non d ame      -6.289   5.174  67.798  0.00  0.00    -0.317 OA
BRANCH  57  58
ATOM     58  C29 non d ame      -5.721   6.229  67.017  0.00  0.00     0.052 C 
ATOM     59  H47 non d ame      -6.133   7.152  67.424  0.00  0.00     0.082 H 
ATOM     60  H48 non d ame      -4.644   6.060  67.031  0.00  0.00     0.082 H 
BRANCH  58  61
ATOM     61  C35 non d ame      -6.224   6.068  65.557  0.00  0.00    -0.034 A 
ATOM     62  C30 non d ame      -5.311   5.924  64.518  0.00  0.00    -0.075 A 
ATOM     63  C31 non d ame      -5.762   5.780  63.207  0.00  0.00    -0.082 A 
ATOM     64  H49 non d ame      -4.243   5.925  64.730  0.00  0.00     0.084 H 
ATOM     65  C32 non d ame      -7.134   5.782  62.937  0.00  0.00    -0.083 A 
ATOM     66  H50 non d ame      -5.045   5.665  62.395  0.00  0.00     0.083 H 
ATOM     67  C33 non d ame      -8.042   5.929  63.977  0.00  0.00    -0.082 A 
ATOM     68  H51 non d ame      -7.495   5.669  61.915  0.00  0.00     0.083 H 
ATOM     69  C34 non d ame      -7.594   6.072  65.289  0.00  0.00    -0.075 A 
ATOM     70  H52 non d ame      -9.111   5.933  63.763  0.00  0.00     0.083 H 
ATOM     71  H53 non d ame      -8.314   6.186  66.101  0.00  0.00     0.084 H 
ENDBRANCH  58  61
ENDBRANCH  57  58
ENDBRANCH  55  57
ENDBRANCH  52  55
ENDBRANCH  49  52
ENDBRANCH  47  49
BRANCH  47  72
ATOM     72  C24 non d ame     -10.405   7.961  69.476  0.00  0.00    -0.039 C 
ATOM     73  H35 non d ame     -10.979   7.919  68.550  0.00  0.00     0.036 H 
ATOM     74  H36 non d ame     -10.590   7.230  70.264  0.00  0.00     0.036 H 
BRANCH  72  75
ATOM     75  C25 non d ame     -10.642   9.411  70.113  0.00  0.00    -0.001 C 
ATOM     76  C26 non d ame     -11.574   9.286  71.462  0.00  0.00    -0.035 C 
ATOM     77  C27 non d ame     -12.607  10.157  71.362  0.00  0.00     0.085 C 
ATOM     78  H38 non d ame     -12.064   8.313  71.488  0.00  0.00     0.036 H 
ATOM     79  H39 non d ame     -11.023   9.643  72.332  0.00  0.00     0.036 H 
ATOM     80  N5  non d ame     -12.648  10.630  69.929  0.00  0.00    -0.049 N 
ATOM     81  H40 non d ame     -13.503   9.572  71.569  0.00  0.00     0.075 H 
ATOM     82  H41 non d ame     -12.342  10.997  72.005  0.00  0.00     0.075 H 
ATOM     83  C28 non d ame     -11.236  10.197  69.277  0.00  0.00     0.193 C 
ATOM     84  H42 non d ame     -13.385  10.107  69.476  0.00  0.00     0.280 HD
ATOM     85  H43 non d ame     -12.692  11.638  69.961  0.00  0.00     0.280 HD
ATOM     86  H44 non d ame     -10.453  10.938  69.111  0.00  0.00     0.129 H 
ATOM     87  H37 non d ame      -9.717   9.980  70.201  0.00  0.00     0.046 H 
BRANCH  83  88
ATOM     88  O6  non d ame     -11.449   9.575  68.009  0.00  0.00    -0.369 OA
ATOM     89  H45 non d ame     -12.038   8.825  68.116  0.00  0.00     0.212 HD
ENDBRANCH  83  88
ENDBRANCH  72  75
ENDBRANCH  47  72
ENDBRANCH  45  47
ENDBRANCH   1  43
BRANCH   1  90
ATOM     90  C16 non d ame      -5.924  10.314  65.927  0.00  0.00    -0.035 C 
ATOM     91  H21 non d ame      -5.991  11.348  65.589  0.00  0.00     0.037 H 
ATOM     92  H22 non d ame      -5.465  10.084  66.888  0.00  0.00     0.037 H 
BRANCH  90  93
ATOM     93  C17 non d ame      -5.095   9.550  64.847  0.00  0.00    -0.059 C 
ATOM     94  H23 non d ame      -5.611   8.613  64.636  0.00  0.00     0.038 H 
BRANCH  93  95
ATOM     95  C18 non d ame      -4.991  10.348  63.509  0.00  0.00    -0.073 C 
ATOM     96  H24 non d ame      -4.225   9.899  62.876  0.00  0.00     0.028 H 
ATOM     97  H25 non d ame      -5.950  10.319  62.992  0.00  0.00     0.028 H 
ATOM     98  H26 non d ame      -4.725  11.383  63.722  0.00  0.00     0.028 H 
ENDBRANCH  93  95
BRANCH  93  99
ATOM     99  C19 non d ame      -3.704   9.192  65.377  0.00  0.00    -0.073 C 
ATOM    100  H27 non d ame      -2.946   9.581  64.699  0.00  0.00     0.028 H 
ATOM    101  H28 non d ame      -3.569   9.631  66.366  0.00  0.00     0.028 H 
ATOM    102  H29 non d ame      -3.610   8.108  65.445  0.00  0.00     0.028 H 
ENDBRANCH  93  99
ENDBRANCH  90  93
ENDBRANCH   1  90
TORSDOF 26
ENDMDL
MODEL 12
REMARK VINA RESULT:      -6.4      2.917      5.058
REMARK  26 active torsions:
REMARK  status: ('A' for Active; 'I' for Inactive)
REMARK    1  A    between atoms: C2_2  and  C3_3 
REMARK    2  A    between atoms: C4_6  and  C5_7 
REMARK       I    between atoms: C5_7  and  N2_9 
REMARK    3  A    between atoms: N2_9  and  C6_10 
REMARK    4  A    between atoms: C6_10  and  C7_11 
REMARK    5  A    between atoms: C6_10  and  C8_13 
REMARK       I    between atoms: C7_11  and  N3_14 
REMARK    6  A    between atoms: N3_14  and  C9_15 
REMARK    7  A    between atoms: C9_15  and  C10_16 
REMARK    8  A    between atoms: C9_15  and  C11_18 
REMARK       I    between atoms: C10_16  and  N4_21 
REMARK    9  A    between atoms: C11_18  and  C12_19 
REMARK   10  A    between atoms: C11_18  and  C13_20 
REMARK   11  A    between atoms: N4_21  and  C14_22 
REMARK   12  A    between atoms: C14_22  and  C15_23 
REMARK   13  A    between atoms: C14_22  and  C16_25 
REMARK       I    between atoms: C15_23  and  N6_40 
REMARK   14  A    between atoms: C16_25  and  C17_26 
REMARK   15  A    between atoms: C17_26  and  C18_27 
REMARK   16  A    between atoms: C17_26  and  C19_28 
REMARK   17  A    between atoms: C20_29  and  C21_30 
REMARK   18  A    between atoms: C20_29  and  C24_33 
REMARK   19  A    between atoms: C20_29  and  N6_40 
REMARK   20  A    between atoms: C21_30  and  C22_31 
REMARK   21  A    between atoms: C22_31  and  C23_32 
REMARK   22  A    between atoms: C23_32  and  O8_43 
REMARK   23  A    between atoms: C24_33  and  C25_34 
REMARK   24  A    between atoms: C28_38  and  O6_39 
REMARK   25  A    between atoms: C29_42  and  O8_43 
REMARK   26  A    between atoms: C29_42  and  C35_49 
ROOT
ATOM      1  C14 non d ame     -10.596   8.516  68.913  0.00  0.00     0.089 C 
ATOM      2  H20 non d ame     -11.516   7.953  69.067  0.00  0.00     0.087 H 
ENDROOT
BRANCH   1   3
ATOM      3  N4  non d ame      -9.621   7.610  68.324  0.00  0.00    -0.346 N 
ATOM      4  C10 non d ame     -10.075   6.443  67.485  0.00  0.00     0.241 C 
ATOM      5  O4  non d ame     -11.232   6.251  67.299  0.00  0.00    -0.271 OA
ATOM      6  H19 non d ame      -8.641   7.789  68.496  0.00  0.00     0.163 HD
BRANCH   4   7
ATOM      7  C9  non d ame      -9.052   5.519  66.878  0.00  0.00     0.092 C 
ATOM      8  H11 non d ame      -9.499   4.535  66.734  0.00  0.00     0.088 H 
BRANCH   7   9
ATOM      9  N3  non d ame      -8.667   6.017  65.554  0.00  0.00    -0.346 N 
ATOM     10  C7  non d ame      -9.032   5.278  64.371  0.00  0.00     0.240 C 
ATOM     11  O3  non d ame      -9.635   4.278  64.466  0.00  0.00    -0.271 OA
ATOM     12  H10 non d ame      -8.146   6.876  65.457  0.00  0.00     0.163 HD
BRANCH  10  13
ATOM     13  C6  non d ame      -8.616   5.812  62.965  0.00  0.00     0.086 C 
ATOM     14  H6  non d ame      -9.384   6.435  62.506  0.00  0.00     0.086 H 
BRANCH  13  15
ATOM     15  N2  non d ame      -7.435   6.646  63.109  0.00  0.00    -0.343 N 
ATOM     16  C5  non d ame      -7.514   8.071  62.777  0.00  0.00     0.273 C 
ATOM     17  O2  non d ame      -8.531   8.534  62.393  0.00  0.00    -0.266 OA
ATOM     18  H5  non d ame      -6.570   6.242  63.436  0.00  0.00     0.163 HD
BRANCH  16  19
ATOM     19  C4  non d ame      -6.273   8.965  62.926  0.00  0.00     0.154 A 
ATOM     20  C1  non d ame      -4.903   8.566  62.829  0.00  0.00    -0.017 A 
ATOM     21  C2  non d ame      -4.162   9.751  63.041  0.00  0.00     0.077 A 
ATOM     22  H1  non d ame      -4.505   7.569  62.634  0.00  0.00     0.091 H 
ATOM     23  O1  non d ame      -5.018  10.712  63.235  0.00  0.00    -0.218 OA
ATOM     24  N1  non d ame      -6.256  10.278  63.174  0.00  0.00    -0.123 NA
BRANCH  21  25
ATOM     25  C3  non d ame      -2.645   9.878  63.040  0.00  0.00    -0.029 C 
ATOM     26  H2  non d ame      -2.304  10.176  64.032  0.00  0.00     0.036 H 
ATOM     27  H3  non d ame      -2.201   8.919  62.776  0.00  0.00     0.036 H 
ATOM     28  H4  non d ame      -2.344  10.631  62.311  0.00  0.00     0.036 H 
ENDBRANCH  21  25
ENDBRANCH  16  19
ENDBRANCH  13  15
BRANCH  13  29
ATOM     29  C8  non d ame      -8.319   4.651  62.051  0.00  0.00    -0.049 C 
ATOM     30  H7  non d ame      -9.128   4.541  61.328  0.00  0.00     0.030 H 
ATOM     31  H8  non d ame      -7.382   4.835  61.523  0.00  0.00     0.030 H 
ATOM     32  H9  non d ame      -8.232   3.738  62.639  0.00  0.00     0.030 H 
ENDBRANCH  13  29
ENDBRANCH  10  13
ENDBRANCH   7   9
BRANCH   7  33
ATOM     33  C11 non d ame      -7.795   5.462  67.795  0.00  0.00    -0.033 C 
ATOM     34  H12 non d ame      -7.989   6.100  68.658  0.00  0.00     0.042 H 
BRANCH  33  35
ATOM     35  C12 non d ame      -7.543   4.017  68.326  0.00  0.00    -0.071 C 
ATOM     36  H13 non d ame      -6.483   3.780  68.245  0.00  0.00     0.028 H 
ATOM     37  H14 non d ame      -7.851   3.955  69.370  0.00  0.00     0.028 H 
ATOM     38  H15 non d ame      -8.122   3.307  67.735  0.00  0.00     0.028 H 
ENDBRANCH  33  35
BRANCH  33  39
ATOM     39  C13 non d ame      -6.538   6.021  67.054  0.00  0.00    -0.071 C 
ATOM     40  H16 non d ame      -5.807   6.363  67.786  0.00  0.00     0.028 H 
ATOM     41  H17 non d ame      -6.098   5.234  66.440  0.00  0.00     0.028 H 
ATOM     42  H18 non d ame      -6.833   6.855  66.418  0.00  0.00     0.028 H 
ENDBRANCH  33  39
ENDBRANCH   7  33
ENDBRANCH   4   7
ENDBRANCH   1   3
BRANCH   1  43
ATOM     43  C15 non d ame     -10.798   9.720  67.950  0.00  0.00     0.240 C 
ATOM     44  O5  non d ame     -11.744  10.429  68.080  0.00  0.00    -0.271 OA
ATOM     45  N6  non d ame      -9.808   9.996  66.870  0.00  0.00    -0.355 N 
ATOM     46  H46 non d ame      -8.998   9.404  66.753  0.00  0.00     0.162 HD
BRANCH  45  47
ATOM     47  C20 non d ame     -10.013  11.146  65.964  0.00  0.00     0.013 C 
ATOM     48  H30 non d ame     -10.932  11.650  66.265  0.00  0.00     0.072 H 
BRANCH  47  49
ATOM     49  C21 non d ame     -10.141  10.647  64.542  0.00  0.00    -0.038 C 
ATOM     50  H31 non d ame      -9.176  10.201  64.299  0.00  0.00     0.036 H 
ATOM     51  H32 non d ame     -11.045  10.036  64.526  0.00  0.00     0.036 H 
BRANCH  49  52
ATOM     52  C22 non d ame     -10.366  11.785  63.524  0.00  0.00     0.018 C 
ATOM     53  H33 non d ame      -9.684  12.584  63.817  0.00  0.00     0.048 H 
ATOM     54  H34 non d ame     -10.275  11.324  62.540  0.00  0.00     0.048 H 
BRANCH  52  55
ATOM     55  C23 non d ame     -11.792  12.401  63.579  0.00  0.00     0.259 C 
ATOM     56  O7  non d ame     -12.732  11.777  63.206  0.00  0.00    -0.265 OA
BRANCH  55  57
ATOM     57  O8  non d ame     -11.961  13.725  64.068  0.00  0.00    -0.317 OA
BRANCH  57  58
ATOM     58  C29 non d ame     -12.407  13.793  65.426  0.00  0.00     0.052 C 
ATOM     59  H47 non d ame     -13.395  14.253  65.390  0.00  0.00     0.082 H 
ATOM     60  H48 non d ame     -12.290  12.786  65.826  0.00  0.00     0.082 H 
BRANCH  58  61
ATOM     61  C35 non d ame     -11.451  14.742  66.197  0.00  0.00    -0.034 A 
ATOM     62  C30 non d ame     -11.602  14.918  67.568  0.00  0.00    -0.075 A 
ATOM     63  C31 non d ame     -10.743  15.770  68.261  0.00  0.00    -0.082 A 
ATOM     64  H49 non d ame     -12.392  14.389  68.100  0.00  0.00     0.084 H 
ATOM     65  C32 non d ame      -9.732  16.449  67.577  0.00  0.00    -0.083 A 
ATOM     66  H50 non d ame     -10.863  15.904  69.336  0.00  0.00     0.083 H 
ATOM     67  C33 non d ame      -9.587  16.273  66.207  0.00  0.00    -0.082 A 
ATOM     68  H51 non d ame      -9.056  17.117  68.111  0.00  0.00     0.083 H 
ATOM     69  C34 non d ame     -10.442  15.420  65.511  0.00  0.00    -0.075 A 
ATOM     70  H52 non d ame      -8.799  16.807  65.675  0.00  0.00     0.083 H 
ATOM     71  H53 non d ame     -10.322  15.287  64.435  0.00  0.00     0.084 H 
ENDBRANCH  58  61
ENDBRANCH  57  58
ENDBRANCH  55  57
ENDBRANCH  52  55
ENDBRANCH  49  52
ENDBRANCH  47  49
BRANCH  47  72
ATOM     72  C24 non d ame      -8.826  12.101  66.064  0.00  0.00    -0.039 C 
ATOM     73  H35 non d ame      -8.165  11.830  65.241  0.00  0.00     0.036 H 
ATOM     74  H36 non d ame      -9.260  13.101  66.107  0.00  0.00     0.036 H 
BRANCH  72  75
ATOM     75  C25 non d ame      -8.005  11.885  67.422  0.00  0.00    -0.001 C 
ATOM     76  C26 non d ame      -8.000  13.274  68.302  0.00  0.00    -0.035 C 
ATOM     77  C27 non d ame      -6.724  13.573  68.641  0.00  0.00     0.085 C 
ATOM     78  H38 non d ame      -8.300  14.114  67.676  0.00  0.00     0.036 H 
ATOM     79  H39 non d ame      -8.488  13.110  69.264  0.00  0.00     0.036 H 
ATOM     80  N5  non d ame      -5.827  12.696  67.800  0.00  0.00    -0.049 N 
ATOM     81  H40 non d ame      -6.579  14.613  68.349  0.00  0.00     0.075 H 
ATOM     82  H41 non d ame      -6.624  13.281  69.687  0.00  0.00     0.075 H 
ATOM     83  C28 non d ame      -6.781  11.550  67.180  0.00  0.00     0.193 C 
ATOM     84  H42 non d ame      -5.488  13.275  67.045  0.00  0.00     0.280 HD
ATOM     85  H43 non d ame      -5.174  12.261  68.435  0.00  0.00     0.280 HD
ATOM     86  H44 non d ame      -6.767  10.539  67.587  0.00  0.00     0.129 H 
ATOM     87  H37 non d ame      -8.296  10.971  67.940  0.00  0.00     0.046 H 
BRANCH  83  88
ATOM     88  O6  non d ame      -6.529  11.403  65.782  0.00  0.00    -0.369 OA
ATOM     89  H45 non d ame      -5.649  11.044  65.652  0.00  0.00     0.212 HD
ENDBRANCH  83  88
ENDBRANCH  72  75
ENDBRANCH  47  72
ENDBRANCH  45  47
ENDBRANCH   1  43
BRANCH   1  90
ATOM     90  C16 non d ame     -10.068   9.013  70.250  0.00  0.00    -0.035 C 
ATOM     91  H21 non d ame      -9.196   8.395  70.464  0.00  0.00     0.037 H 
ATOM     92  H22 non d ame      -9.955  10.090  70.133  0.00  0.00     0.037 H 
BRANCH  90  93
ATOM     93  C17 non d ame     -11.061   8.798  71.435  0.00  0.00    -0.059 C 
ATOM     94  H23 non d ame     -10.496   8.895  72.362  0.00  0.00     0.038 H 
BRANCH  93  95
ATOM     95  C18 non d ame     -12.197   9.869  71.454  0.00  0.00    -0.073 C 
ATOM     96  H24 non d ame     -11.758  10.866  71.407  0.00  0.00     0.028 H 
ATOM     97  H25 non d ame     -12.852   9.721  70.596  0.00  0.00     0.028 H 
ATOM     98  H26 non d ame     -12.776   9.770  72.373  0.00  0.00     0.028 H 
ENDBRANCH  93  95
BRANCH  93  99
ATOM     99  C19 non d ame     -11.646   7.383  71.407  0.00  0.00    -0.073 C 
ATOM    100  H27 non d ame     -12.104   7.161  72.371  0.00  0.00     0.028 H 
ATOM    101  H28 non d ame     -12.400   7.317  70.623  0.00  0.00     0.028 H 
ATOM    102  H29 non d ame     -10.851   6.666  71.209  0.00  0.00     0.028 H 
ENDBRANCH  93  99
ENDBRANCH  90  93
ENDBRANCH   1  90
TORSDOF 26
ENDMDL
MODEL 13
REMARK VINA RESULT:      -6.4      2.240      5.728
REMARK  26 active torsions:
REMARK  status: ('A' for Active; 'I' for Inactive)
REMARK    1  A    between atoms: C2_2  and  C3_3 
REMARK    2  A    between atoms: C4_6  and  C5_7 
REMARK       I    between atoms: C5_7  and  N2_9 
REMARK    3  A    between atoms: N2_9  and  C6_10 
REMARK    4  A    between atoms: C6_10  and  C7_11 
REMARK    5  A    between atoms: C6_10  and  C8_13 
REMARK       I    between atoms: C7_11  and  N3_14 
REMARK    6  A    between atoms: N3_14  and  C9_15 
REMARK    7  A    between atoms: C9_15  and  C10_16 
REMARK    8  A    between atoms: C9_15  and  C11_18 
REMARK       I    between atoms: C10_16  and  N4_21 
REMARK    9  A    between atoms: C11_18  and  C12_19 
REMARK   10  A    between atoms: C11_18  and  C13_20 
REMARK   11  A    between atoms: N4_21  and  C14_22 
REMARK   12  A    between atoms: C14_22  and  C15_23 
REMARK   13  A    between atoms: C14_22  and  C16_25 
REMARK       I    between atoms: C15_23  and  N6_40 
REMARK   14  A    between atoms: C16_25  and  C17_26 
REMARK   15  A    between atoms: C17_26  and  C18_27 
REMARK   16  A    between atoms: C17_26  and  C19_28 
REMARK   17  A    between atoms: C20_29  and  C21_30 
REMARK   18  A    between atoms: C20_29  and  C24_33 
REMARK   19  A    between atoms: C20_29  and  N6_40 
REMARK   20  A    between atoms: C21_30  and  C22_31 
REMARK   21  A    between atoms: C22_31  and  C23_32 
REMARK   22  A    between atoms: C23_32  and  O8_43 
REMARK   23  A    between atoms: C24_33  and  C25_34 
REMARK   24  A    between atoms: C28_38  and  O6_39 
REMARK   25  A    between atoms: C29_42  and  O8_43 
REMARK   26  A    between atoms: C29_42  and  C35_49 
ROOT
ATOM      1  C14 non d ame     -10.830   7.084  69.642  0.00  0.00     0.089 C 
ATOM      2  H20 non d ame     -11.907   6.982  69.504  0.00  0.00     0.087 H 
ENDROOT
BRANCH   1   3
ATOM      3  N4  non d ame     -10.188   6.026  68.877  0.00  0.00    -0.346 N 
ATOM      4  C10 non d ame     -10.520   5.830  67.419  0.00  0.00     0.241 C 
ATOM      5  O4  non d ame     -11.310   6.536  66.883  0.00  0.00    -0.271 OA
ATOM      6  H19 non d ame      -9.520   5.434  69.352  0.00  0.00     0.163 HD
BRANCH   4   7
ATOM      7  C9  non d ame      -9.842   4.734  66.641  0.00  0.00     0.092 C 
ATOM      8  H11 non d ame     -10.578   3.978  66.369  0.00  0.00     0.088 H 
BRANCH   7   9
ATOM      9  N3  non d ame      -9.304   5.281  65.391  0.00  0.00    -0.346 N 
ATOM     10  C7  non d ame      -9.617   4.651  64.133  0.00  0.00     0.240 C 
ATOM     11  O3  non d ame     -10.300   3.700  64.107  0.00  0.00    -0.271 OA
ATOM     12  H10 non d ame      -8.712   6.099  65.398  0.00  0.00     0.163 HD
BRANCH  10  13
ATOM     13  C6  non d ame      -9.039   5.237  62.808  0.00  0.00     0.086 C 
ATOM     14  H6  non d ame      -9.625   6.072  62.424  0.00  0.00     0.086 H 
BRANCH  13  15
ATOM     15  N2  non d ame      -7.703   5.749  63.063  0.00  0.00    -0.343 N 
ATOM     16  C5  non d ame      -7.438   7.181  62.906  0.00  0.00     0.273 C 
ATOM     17  O2  non d ame      -8.305   7.911  62.572  0.00  0.00    -0.266 OA
ATOM     18  H5  non d ame      -6.967   5.118  63.346  0.00  0.00     0.163 HD
BRANCH  16  19
ATOM     19  C4  non d ame      -6.031   7.737  63.174  0.00  0.00     0.154 A 
ATOM     20  C1  non d ame      -5.369   8.791  62.469  0.00  0.00    -0.017 A 
ATOM     21  C2  non d ame      -4.110   8.917  63.098  0.00  0.00     0.077 A 
ATOM     22  H1  non d ame      -5.743   9.376  61.628  0.00  0.00     0.091 H 
ATOM     23  O1  non d ame      -4.066   8.035  64.055  0.00  0.00    -0.218 OA
ATOM     24  N1  non d ame      -5.175   7.334  64.117  0.00  0.00    -0.123 NA
BRANCH  21  25
ATOM     25  C3  non d ame      -3.012   9.904  62.729  0.00  0.00    -0.029 C 
ATOM     26  H2  non d ame      -3.268  10.894  63.109  0.00  0.00     0.036 H 
ATOM     27  H3  non d ame      -2.069   9.580  63.169  0.00  0.00     0.036 H 
ATOM     28  H4  non d ame      -2.910   9.947  61.644  0.00  0.00     0.036 H 
ENDBRANCH  21  25
ENDBRANCH  16  19
ENDBRANCH  13  15
BRANCH  13  29
ATOM     29  C8  non d ame      -8.985   4.156  61.758  0.00  0.00    -0.049 C 
ATOM     30  H7  non d ame      -7.957   3.815  61.639  0.00  0.00     0.030 H 
ATOM     31  H8  non d ame      -9.612   3.318  62.067  0.00  0.00     0.030 H 
ATOM     32  H9  non d ame      -9.348   4.551  60.811  0.00  0.00     0.030 H 
ENDBRANCH  13  29
ENDBRANCH  10  13
ENDBRANCH   7   9
BRANCH   7  33
ATOM     33  C11 non d ame      -8.678   4.140  67.487  0.00  0.00    -0.033 C 
ATOM     34  H12 non d ame      -8.603   4.729  68.401  0.00  0.00     0.042 H 
BRANCH  33  35
ATOM     35  C12 non d ame      -8.973   2.665  67.903  0.00  0.00    -0.071 C 
ATOM     36  H13 non d ame      -9.990   2.593  68.289  0.00  0.00     0.028 H 
ATOM     37  H14 non d ame      -8.868   2.015  67.035  0.00  0.00     0.028 H 
ATOM     38  H15 non d ame      -8.268   2.358  68.675  0.00  0.00     0.028 H 
ENDBRANCH  33  35
BRANCH  33  39
ATOM     39  C13 non d ame      -7.319   4.253  66.726  0.00  0.00    -0.071 C 
ATOM     40  H16 non d ame      -6.736   5.074  67.143  0.00  0.00     0.028 H 
ATOM     41  H17 non d ame      -6.763   3.321  66.833  0.00  0.00     0.028 H 
ATOM     42  H18 non d ame      -7.510   4.442  65.670  0.00  0.00     0.028 H 
ENDBRANCH  33  39
ENDBRANCH   7  33
ENDBRANCH   4   7
ENDBRANCH   1   3
BRANCH   1  43
ATOM     43  C15 non d ame     -10.300   8.455  69.133  0.00  0.00     0.240 C 
ATOM     44  O5  non d ame      -9.167   8.760  69.328  0.00  0.00    -0.271 OA
ATOM     45  N6  non d ame     -11.200   9.384  68.394  0.00  0.00    -0.355 N 
ATOM     46  H46 non d ame     -12.163   9.135  68.218  0.00  0.00     0.162 HD
BRANCH  45  47
ATOM     47  C20 non d ame     -10.680  10.684  67.916  0.00  0.00     0.013 C 
ATOM     48  H30 non d ame      -9.610  10.710  68.118  0.00  0.00     0.072 H 
BRANCH  47  49
ATOM     49  C21 non d ame     -11.374  11.804  68.658  0.00  0.00    -0.038 C 
ATOM     50  H31 non d ame     -12.361  11.420  68.916  0.00  0.00     0.036 H 
ATOM     51  H32 non d ame     -10.682  12.106  69.446  0.00  0.00     0.036 H 
BRANCH  49  52
ATOM     52  C22 non d ame     -11.606  13.052  67.779  0.00  0.00     0.018 C 
ATOM     53  H33 non d ame     -11.532  12.705  66.748  0.00  0.00     0.048 H 
ATOM     54  H34 non d ame     -12.533  13.498  68.139  0.00  0.00     0.048 H 
BRANCH  52  55
ATOM     55  C23 non d ame     -10.512  14.144  67.942  0.00  0.00     0.259 C 
ATOM     56  O7  non d ame      -9.639  14.246  67.143  0.00  0.00    -0.265 OA
BRANCH  55  57
ATOM     57  O8  non d ame     -10.558  15.014  69.066  0.00  0.00    -0.317 OA
BRANCH  57  58
ATOM     58  C29 non d ame     -11.824  15.649  69.262  0.00  0.00     0.052 C 
ATOM     59  H47 non d ame     -11.638  16.718  69.161  0.00  0.00     0.082 H 
ATOM     60  H48 non d ame     -12.513  15.150  68.579  0.00  0.00     0.082 H 
BRANCH  58  61
ATOM     61  C35 non d ame     -12.283  15.365  70.716  0.00  0.00    -0.034 A 
ATOM     62  C30 non d ame     -11.933  16.238  71.740  0.00  0.00    -0.075 A 
ATOM     63  C31 non d ame     -12.345  15.983  73.047  0.00  0.00    -0.082 A 
ATOM     64  H49 non d ame     -11.337  17.123  71.519  0.00  0.00     0.084 H 
ATOM     65  C32 non d ame     -13.109  14.847  73.329  0.00  0.00    -0.083 A 
ATOM     66  H50 non d ame     -12.071  16.671  73.847  0.00  0.00     0.083 H 
ATOM     67  C33 non d ame     -13.453  13.976  72.305  0.00  0.00    -0.082 A 
ATOM     68  H51 non d ame     -13.435  14.640  74.348  0.00  0.00     0.083 H 
ATOM     69  C34 non d ame     -13.045  14.229  70.996  0.00  0.00    -0.075 A 
ATOM     70  H52 non d ame     -14.047  13.089  72.528  0.00  0.00     0.083 H 
ATOM     71  H53 non d ame     -13.321  13.540  70.196  0.00  0.00     0.084 H 
ENDBRANCH  58  61
ENDBRANCH  57  58
ENDBRANCH  55  57
ENDBRANCH  52  55
ENDBRANCH  49  52
ENDBRANCH  47  49
BRANCH  47  72
ATOM     72  C24 non d ame     -10.942  10.825  66.418  0.00  0.00    -0.039 C 
ATOM     73  H35 non d ame     -11.955  10.453  66.264  0.00  0.00     0.036 H 
ATOM     74  H36 non d ame     -10.700  11.860  66.177  0.00  0.00     0.036 H 
BRANCH  72  75
ATOM     75  C25 non d ame      -9.962   9.897  65.555  0.00  0.00    -0.001 C 
ATOM     76  C26 non d ame      -8.432   9.990  66.151  0.00  0.00    -0.035 C 
ATOM     77  C27 non d ame      -7.584  10.276  65.135  0.00  0.00     0.085 C 
ATOM     78  H38 non d ame      -8.340  10.854  66.810  0.00  0.00     0.036 H 
ATOM     79  H39 non d ame      -8.103   9.008  66.491  0.00  0.00     0.036 H 
ATOM     80  N5  non d ame      -8.430  10.707  63.962  0.00  0.00    -0.049 N 
ATOM     81  H40 non d ame      -6.992  11.125  65.478  0.00  0.00     0.075 H 
ATOM     82  H41 non d ame      -7.094   9.333  64.891  0.00  0.00     0.075 H 
ATOM     83  C28 non d ame      -9.942  10.264  64.317  0.00  0.00     0.193 C 
ATOM     84  H42 non d ame      -8.389  11.716  63.935  0.00  0.00     0.280 HD
ATOM     85  H43 non d ame      -8.115  10.168  63.168  0.00  0.00     0.280 HD
ATOM     86  H44 non d ame     -10.388   9.389  63.843  0.00  0.00     0.129 H 
ATOM     87  H37 non d ame     -10.372   8.900  65.395  0.00  0.00     0.046 H 
BRANCH  83  88
ATOM     88  O6  non d ame     -10.844  11.341  64.058  0.00  0.00    -0.369 OA
ATOM     89  H45 non d ame     -11.304  11.181  63.232  0.00  0.00     0.212 HD
ENDBRANCH  83  88
ENDBRANCH  72  75
ENDBRANCH  47  72
ENDBRANCH  45  47
ENDBRANCH   1  43
BRANCH   1  90
ATOM     90  C16 non d ame     -10.482   6.915  71.113  0.00  0.00    -0.035 C 
ATOM     91  H21 non d ame      -9.991   7.845  71.401  0.00  0.00     0.037 H 
ATOM     92  H22 non d ame     -11.411   6.617  71.596  0.00  0.00     0.037 H 
BRANCH  90  93
ATOM     93  C17 non d ame      -9.455   5.771  71.386  0.00  0.00    -0.059 C 
ATOM     94  H23 non d ame      -8.931   5.568  70.452  0.00  0.00     0.038 H 
BRANCH  93  95
ATOM     95  C18 non d ame      -8.388   6.178  72.452  0.00  0.00    -0.073 C 
ATOM     96  H24 non d ame      -7.389   6.029  72.041  0.00  0.00     0.028 H 
ATOM     97  H25 non d ame      -8.519   7.228  72.714  0.00  0.00     0.028 H 
ATOM     98  H26 non d ame      -8.511   5.563  73.343  0.00  0.00     0.028 H 
ENDBRANCH  93  95
BRANCH  93  99
ATOM     99  C19 non d ame     -10.170   4.481  71.795  0.00  0.00    -0.073 C 
ATOM    100  H27 non d ame      -9.580   3.963  72.551  0.00  0.00     0.028 H 
ATOM    101  H28 non d ame     -11.152   4.723  72.203  0.00  0.00     0.028 H 
ATOM    102  H29 non d ame     -10.287   3.838  70.923  0.00  0.00     0.028 H 
ENDBRANCH  93  99
ENDBRANCH  90  93
ENDBRANCH   1  90
TORSDOF 26
ENDMDL
MODEL 14
REMARK VINA RESULT:      -6.4      3.377      9.085
REMARK  26 active torsions:
REMARK  status: ('A' for Active; 'I' for Inactive)
REMARK    1  A    between atoms: C2_2  and  C3_3 
REMARK    2  A    between atoms: C4_6  and  C5_7 
REMARK       I    between atoms: C5_7  and  N2_9 
REMARK    3  A    between atoms: N2_9  and  C6_10 
REMARK    4  A    between atoms: C6_10  and  C7_11 
REMARK    5  A    between atoms: C6_10  and  C8_13 
REMARK       I    between atoms: C7_11  and  N3_14 
REMARK    6  A    between atoms: N3_14  and  C9_15 
REMARK    7  A    between atoms: C9_15  and  C10_16 
REMARK    8  A    between atoms: C9_15  and  C11_18 
REMARK       I    between atoms: C10_16  and  N4_21 
REMARK    9  A    between atoms: C11_18  and  C12_19 
REMARK   10  A    between atoms: C11_18  and  C13_20 
REMARK   11  A    between atoms: N4_21  and  C14_22 
REMARK   12  A    between atoms: C14_22  and  C15_23 
REMARK   13  A    between atoms: C14_22  and  C16_25 
REMARK       I    between atoms: C15_23  and  N6_40 
REMARK   14  A    between atoms: C16_25  and  C17_26 
REMARK   15  A    between atoms: C17_26  and  C18_27 
REMARK   16  A    between atoms: C17_26  and  C19_28 
REMARK   17  A    between atoms: C20_29  and  C21_30 
REMARK   18  A    between atoms: C20_29  and  C24_33 
REMARK   19  A    between atoms: C20_29  and  N6_40 
REMARK   20  A    between atoms: C21_30  and  C22_31 
REMARK   21  A    between atoms: C22_31  and  C23_32 
REMARK   22  A    between atoms: C23_32  and  O8_43 
REMARK   23  A    between atoms: C24_33  and  C25_34 
REMARK   24  A    between atoms: C28_38  and  O6_39 
REMARK   25  A    between atoms: C29_42  and  O8_43 
REMARK   26  A    between atoms: C29_42  and  C35_49 
ROOT
ATOM      1  C14 non d ame      -6.811   8.766  67.228  0.00  0.00     0.089 C 
ATOM      2  H20 non d ame      -5.784   8.926  66.901  0.00  0.00     0.087 H 
ENDROOT
BRANCH   1   3
ATOM      3  N4  non d ame      -7.671   8.913  66.062  0.00  0.00    -0.346 N 
ATOM      4  C10 non d ame      -7.240   9.777  64.903  0.00  0.00     0.241 C 
ATOM      5  O4  non d ame      -6.198  10.345  64.933  0.00  0.00    -0.271 OA
ATOM      6  H19 non d ame      -8.554   8.423  66.058  0.00  0.00     0.163 HD
BRANCH   4   7
ATOM      7  C9  non d ame      -8.139   9.914  63.703  0.00  0.00     0.092 C 
ATOM      8  H11 non d ame      -8.818   9.062  63.663  0.00  0.00     0.088 H 
BRANCH   7   9
ATOM      9  N3  non d ame      -8.964  11.118  63.845  0.00  0.00    -0.346 N 
ATOM     10  C7  non d ame     -10.164  11.080  64.644  0.00  0.00     0.240 C 
ATOM     11  O3  non d ame     -10.482  10.087  65.178  0.00  0.00    -0.271 OA
ATOM     12  H10 non d ame      -8.704  11.980  63.388  0.00  0.00     0.163 HD
BRANCH  10  13
ATOM     13  C6  non d ame     -11.040  12.363  64.788  0.00  0.00     0.086 C 
ATOM     14  H6  non d ame     -11.658  12.353  65.685  0.00  0.00     0.086 H 
BRANCH  13  15
ATOM     15  N2  non d ame     -10.166  13.519  64.898  0.00  0.00    -0.343 N 
ATOM     16  C5  non d ame     -10.491  14.580  65.854  0.00  0.00     0.273 C 
ATOM     17  O2  non d ame     -11.458  14.495  66.527  0.00  0.00    -0.266 OA
ATOM     18  H5  non d ame      -9.343  13.585  64.317  0.00  0.00     0.163 HD
BRANCH  16  19
ATOM     19  C4  non d ame      -9.575  15.807  65.982  0.00  0.00     0.154 A 
ATOM     20  C1  non d ame      -8.282  15.860  66.592  0.00  0.00    -0.017 A 
ATOM     21  C2  non d ame      -7.867  17.204  66.450  0.00  0.00     0.077 A 
ATOM     22  H1  non d ame      -7.728  15.049  67.065  0.00  0.00     0.091 H 
ATOM     23  O1  non d ame      -8.818  17.839  65.828  0.00  0.00    -0.218 OA
ATOM     24  N1  non d ame      -9.826  17.045  65.546  0.00  0.00    -0.123 NA
BRANCH  21  25
ATOM     25  C3  non d ame      -6.551  17.797  66.932  0.00  0.00    -0.029 C 
ATOM     26  H2  non d ame      -6.733  18.777  67.374  0.00  0.00     0.036 H 
ATOM     27  H3  non d ame      -6.108  17.139  67.679  0.00  0.00     0.036 H 
ATOM     28  H4  non d ame      -5.867  17.900  66.089  0.00  0.00     0.036 H 
ENDBRANCH  21  25
ENDBRANCH  16  19
ENDBRANCH  13  15
BRANCH  13  29
ATOM     29  C8  non d ame     -11.933  12.504  63.582  0.00  0.00    -0.049 C 
ATOM     30  H7  non d ame     -11.511  13.244  62.901  0.00  0.00     0.030 H 
ATOM     31  H8  non d ame     -12.008  11.543  63.071  0.00  0.00     0.030 H 
ATOM     32  H9  non d ame     -12.924  12.826  63.899  0.00  0.00     0.030 H 
ENDBRANCH  13  29
ENDBRANCH  10  13
ENDBRANCH   7   9
BRANCH   7  33
ATOM     33  C11 non d ame      -7.272  10.032  62.416  0.00  0.00    -0.033 C 
ATOM     34  H12 non d ame      -6.277  10.359  62.719  0.00  0.00     0.042 H 
BRANCH  33  35
ATOM     35  C12 non d ame      -7.115   8.650  61.707  0.00  0.00    -0.071 C 
ATOM     36  H13 non d ame      -6.347   8.722  60.938  0.00  0.00     0.028 H 
ATOM     37  H14 non d ame      -6.826   7.897  62.440  0.00  0.00     0.028 H 
ATOM     38  H15 non d ame      -8.063   8.367  61.251  0.00  0.00     0.028 H 
ENDBRANCH  33  35
BRANCH  33  39
ATOM     39  C13 non d ame      -7.858  11.104  61.442  0.00  0.00    -0.071 C 
ATOM     40  H16 non d ame      -8.938  10.979  61.372  0.00  0.00     0.028 H 
ATOM     41  H17 non d ame      -7.631  12.101  61.820  0.00  0.00     0.028 H 
ATOM     42  H18 non d ame      -7.413  10.980  60.455  0.00  0.00     0.028 H 
ENDBRANCH  33  39
ENDBRANCH   7  33
ENDBRANCH   4   7
ENDBRANCH   1   3
BRANCH   1  43
ATOM     43  C15 non d ame      -7.024   7.344  67.823  0.00  0.00     0.240 C 
ATOM     44  O5  non d ame      -6.241   6.906  68.603  0.00  0.00    -0.271 OA
ATOM     45  N6  non d ame      -8.209   6.531  67.427  0.00  0.00    -0.355 N 
ATOM     46  H46 non d ame      -8.884   6.893  66.768  0.00  0.00     0.162 HD
BRANCH  45  47
ATOM     47  C20 non d ame      -8.398   5.182  68.003  0.00  0.00     0.013 C 
ATOM     48  H30 non d ame      -7.639   5.037  68.772  0.00  0.00     0.072 H 
BRANCH  47  49
ATOM     49  C21 non d ame      -8.234   4.146  66.914  0.00  0.00    -0.038 C 
ATOM     50  H31 non d ame      -7.297   4.391  66.413  0.00  0.00     0.036 H 
ATOM     51  H32 non d ame      -8.353   3.180  67.407  0.00  0.00     0.036 H 
BRANCH  49  52
ATOM     52  C22 non d ame      -9.339   4.225  65.839  0.00  0.00     0.018 C 
ATOM     53  H33 non d ame      -9.540   3.195  65.545  0.00  0.00     0.048 H 
ATOM     54  H34 non d ame     -10.132   4.832  66.276  0.00  0.00     0.048 H 
BRANCH  52  55
ATOM     55  C23 non d ame      -8.899   4.962  64.543  0.00  0.00     0.259 C 
ATOM     56  O7  non d ame      -9.362   4.659  63.492  0.00  0.00    -0.265 OA
BRANCH  55  57
ATOM     57  O8  non d ame      -7.924   5.994  64.624  0.00  0.00    -0.317 OA
BRANCH  57  58
ATOM     58  C29 non d ame      -6.772   5.774  63.804  0.00  0.00     0.052 C 
ATOM     59  H47 non d ame      -6.808   4.723  63.520  0.00  0.00     0.082 H 
ATOM     60  H48 non d ame      -6.805   6.547  63.036  0.00  0.00     0.082 H 
BRANCH  58  61
ATOM     61  C35 non d ame      -5.511   6.004  64.679  0.00  0.00    -0.034 A 
ATOM     62  C30 non d ame      -4.812   7.203  64.590  0.00  0.00    -0.075 A 
ATOM     63  C31 non d ame      -3.679   7.410  65.376  0.00  0.00    -0.082 A 
ATOM     64  H49 non d ame      -5.151   7.980  63.907  0.00  0.00     0.084 H 
ATOM     65  C32 non d ame      -3.244   6.411  66.250  0.00  0.00    -0.083 A 
ATOM     66  H50 non d ame      -3.134   8.352  65.305  0.00  0.00     0.083 H 
ATOM     67  C33 non d ame      -3.943   5.214  66.333  0.00  0.00    -0.082 A 
ATOM     68  H51 non d ame      -2.359   6.565  66.868  0.00  0.00     0.083 H 
ATOM     69  C34 non d ame      -5.077   5.004  65.551  0.00  0.00    -0.075 A 
ATOM     70  H52 non d ame      -3.600   4.436  67.015  0.00  0.00     0.083 H 
ATOM     71  H53 non d ame      -5.622   4.062  65.623  0.00  0.00     0.084 H 
ENDBRANCH  58  61
ENDBRANCH  57  58
ENDBRANCH  55  57
ENDBRANCH  52  55
ENDBRANCH  49  52
ENDBRANCH  47  49
BRANCH  47  72
ATOM     72  C24 non d ame      -9.796   5.070  68.607  0.00  0.00    -0.039 C 
ATOM     73  H35 non d ame     -10.484   5.167  67.768  0.00  0.00     0.036 H 
ATOM     74  H36 non d ame      -9.784   4.154  69.199  0.00  0.00     0.036 H 
BRANCH  72  75
ATOM     75  C25 non d ame     -10.105   6.278  69.614  0.00  0.00    -0.001 C 
ATOM     76  C26 non d ame     -10.460   5.687  71.106  0.00  0.00    -0.035 C 
ATOM     77  C27 non d ame     -11.625   6.235  71.527  0.00  0.00     0.085 C 
ATOM     78  H38 non d ame     -10.688   4.623  71.042  0.00  0.00     0.036 H 
ATOM     79  H39 non d ame      -9.732   6.046  71.834  0.00  0.00     0.036 H 
ATOM     80  N5  non d ame     -12.263   6.892  70.327  0.00  0.00    -0.049 N 
ATOM     81  H40 non d ame     -12.245   5.395  71.843  0.00  0.00     0.075 H 
ATOM     82  H41 non d ame     -11.343   7.005  72.244  0.00  0.00     0.075 H 
ATOM     83  C28 non d ame     -11.106   6.983  69.203  0.00  0.00     0.193 C 
ATOM     84  H42 non d ame     -12.979   6.259  70.000  0.00  0.00     0.280 HD
ATOM     85  H43 non d ame     -12.509   7.829  70.610  0.00  0.00     0.280 HD
ATOM     86  H44 non d ame     -10.609   7.931  68.996  0.00  0.00     0.129 H 
ATOM     87  H37 non d ame      -9.352   7.064  69.558  0.00  0.00     0.046 H 
BRANCH  83  88
ATOM     88  O6  non d ame     -11.606   6.529  67.945  0.00  0.00    -0.369 OA
ATOM     89  H45 non d ame     -12.280   7.135  67.631  0.00  0.00     0.212 HD
ENDBRANCH  83  88
ENDBRANCH  72  75
ENDBRANCH  47  72
ENDBRANCH  45  47
ENDBRANCH   1  43
BRANCH   1  90
ATOM     90  C16 non d ame      -7.192   9.815  68.261  0.00  0.00    -0.035 C 
ATOM     91  H21 non d ame      -6.551   9.618  69.121  0.00  0.00     0.037 H 
ATOM     92  H22 non d ame      -7.126  10.769  67.741  0.00  0.00     0.037 H 
BRANCH  90  93
ATOM     93  C17 non d ame      -8.663   9.688  68.770  0.00  0.00    -0.059 C 
ATOM     94  H23 non d ame      -9.100   8.807  68.301  0.00  0.00     0.038 H 
BRANCH  93  95
ATOM     95  C18 non d ame      -8.737   9.492  70.317  0.00  0.00    -0.073 C 
ATOM     96  H24 non d ame      -7.919   8.849  70.642  0.00  0.00     0.028 H 
ATOM     97  H25 non d ame      -8.654  10.461  70.811  0.00  0.00     0.028 H 
ATOM     98  H26 non d ame      -9.689   9.032  70.580  0.00  0.00     0.028 H 
ENDBRANCH  93  95
BRANCH  93  99
ATOM     99  C19 non d ame      -9.497  10.895  68.332  0.00  0.00    -0.073 C 
ATOM    100  H27 non d ame      -9.550  11.615  69.148  0.00  0.00     0.028 H 
ATOM    101  H28 non d ame      -9.033  11.363  67.464  0.00  0.00     0.028 H 
ATOM    102  H29 non d ame     -10.503  10.566  68.073  0.00  0.00     0.028 H 
ENDBRANCH  93  99
ENDBRANCH  90  93
ENDBRANCH   1  90
TORSDOF 26
ENDMDL
MODEL 15
REMARK VINA RESULT:      -6.3      2.590      7.964
REMARK  26 active torsions:
REMARK  status: ('A' for Active; 'I' for Inactive)
REMARK    1  A    between atoms: C2_2  and  C3_3 
REMARK    2  A    between atoms: C4_6  and  C5_7 
REMARK       I    between atoms: C5_7  and  N2_9 
REMARK    3  A    between atoms: N2_9  and  C6_10 
REMARK    4  A    between atoms: C6_10  and  C7_11 
REMARK    5  A    between atoms: C6_10  and  C8_13 
REMARK       I    between atoms: C7_11  and  N3_14 
REMARK    6  A    between atoms: N3_14  and  C9_15 
REMARK    7  A    between atoms: C9_15  and  C10_16 
REMARK    8  A    between atoms: C9_15  and  C11_18 
REMARK       I    between atoms: C10_16  and  N4_21 
REMARK    9  A    between atoms: C11_18  and  C12_19 
REMARK   10  A    between atoms: C11_18  and  C13_20 
REMARK   11  A    between atoms: N4_21  and  C14_22 
REMARK   12  A    between atoms: C14_22  and  C15_23 
REMARK   13  A    between atoms: C14_22  and  C16_25 
REMARK       I    between atoms: C15_23  and  N6_40 
REMARK   14  A    between atoms: C16_25  and  C17_26 
REMARK   15  A    between atoms: C17_26  and  C18_27 
REMARK   16  A    between atoms: C17_26  and  C19_28 
REMARK   17  A    between atoms: C20_29  and  C21_30 
REMARK   18  A    between atoms: C20_29  and  C24_33 
REMARK   19  A    between atoms: C20_29  and  N6_40 
REMARK   20  A    between atoms: C21_30  and  C22_31 
REMARK   21  A    between atoms: C22_31  and  C23_32 
REMARK   22  A    between atoms: C23_32  and  O8_43 
REMARK   23  A    between atoms: C24_33  and  C25_34 
REMARK   24  A    between atoms: C28_38  and  O6_39 
REMARK   25  A    between atoms: C29_42  and  O8_43 
REMARK   26  A    between atoms: C29_42  and  C35_49 
ROOT
ATOM      1  C14 non d ame      -9.168   6.882  66.405  0.00  0.00     0.089 C 
ATOM      2  H20 non d ame      -9.684   6.407  65.570  0.00  0.00     0.087 H 
ENDROOT
BRANCH   1   3
ATOM      3  N4  non d ame      -8.731   8.197  65.961  0.00  0.00    -0.346 N 
ATOM      4  C10 non d ame      -8.254   8.403  64.545  0.00  0.00     0.241 C 
ATOM      5  O4  non d ame      -8.228   7.493  63.782  0.00  0.00    -0.271 OA
ATOM      6  H19 non d ame      -8.758   8.956  66.627  0.00  0.00     0.163 HD
BRANCH   4   7
ATOM      7  C9  non d ame      -7.810   9.771  64.101  0.00  0.00     0.092 C 
ATOM      8  H11 non d ame      -7.873   9.834  63.014  0.00  0.00     0.088 H 
BRANCH   7   9
ATOM      9  N3  non d ame      -8.721  10.782  64.645  0.00  0.00    -0.346 N 
ATOM     10  C7  non d ame      -9.887  11.181  63.897  0.00  0.00     0.240 C 
ATOM     11  O3  non d ame     -10.106  10.701  62.852  0.00  0.00    -0.271 OA
ATOM     12  H10 non d ame      -8.544  11.207  65.544  0.00  0.00     0.163 HD
BRANCH  10  13
ATOM     13  C6  non d ame     -10.850  12.260  64.481  0.00  0.00     0.086 C 
ATOM     14  H6  non d ame     -11.285  11.966  65.436  0.00  0.00     0.086 H 
BRANCH  13  15
ATOM     15  N2  non d ame     -10.099  13.480  64.724  0.00  0.00    -0.343 N 
ATOM     16  C5  non d ame     -10.351  14.251  65.945  0.00  0.00     0.273 C 
ATOM     17  O2  non d ame     -11.161  13.881  66.722  0.00  0.00    -0.266 OA
ATOM     18  H5  non d ame      -9.410  13.790  64.054  0.00  0.00     0.163 HD
BRANCH  16  19
ATOM     19  C4  non d ame      -9.563  15.541  66.217  0.00  0.00     0.154 A 
ATOM     20  C1  non d ame      -8.719  15.819  67.338  0.00  0.00    -0.017 A 
ATOM     21  C2  non d ame      -8.236  17.128  67.116  0.00  0.00     0.077 A 
ATOM     22  H1  non d ame      -8.491  15.170  68.185  0.00  0.00     0.091 H 
ATOM     23  O1  non d ame      -8.747  17.544  65.994  0.00  0.00    -0.218 OA
ATOM     24  N1  non d ame      -9.526  16.635  65.451  0.00  0.00    -0.123 NA
BRANCH  21  25
ATOM     25  C3  non d ame      -7.290  17.906  68.020  0.00  0.00    -0.029 C 
ATOM     26  H2  non d ame      -6.803  18.694  67.446  0.00  0.00     0.036 H 
ATOM     27  H3  non d ame      -7.855  18.350  68.840  0.00  0.00     0.036 H 
ATOM     28  H4  non d ame      -6.535  17.231  68.424  0.00  0.00     0.036 H 
ENDBRANCH  21  25
ENDBRANCH  16  19
ENDBRANCH  13  15
BRANCH  13  29
ATOM     29  C8  non d ame     -11.964  12.527  63.501  0.00  0.00    -0.049 C 
ATOM     30  H7  non d ame     -11.592  13.151  62.687  0.00  0.00     0.030 H 
ATOM     31  H8  non d ame     -12.327  11.581  63.096  0.00  0.00     0.030 H 
ATOM     32  H9  non d ame     -12.779  13.042  64.008  0.00  0.00     0.030 H 
ENDBRANCH  13  29
ENDBRANCH  10  13
ENDBRANCH   7   9
BRANCH   7  33
ATOM     33  C11 non d ame      -6.367  10.043  64.619  0.00  0.00    -0.033 C 
ATOM     34  H12 non d ame      -5.934   9.083  64.902  0.00  0.00     0.042 H 
BRANCH  33  35
ATOM     35  C12 non d ame      -5.466  10.652  63.500  0.00  0.00    -0.071 C 
ATOM     36  H13 non d ame      -4.425  10.629  63.820  0.00  0.00     0.028 H 
ATOM     37  H14 non d ame      -5.578  10.070  62.586  0.00  0.00     0.028 H 
ATOM     38  H15 non d ame      -5.768  11.682  63.313  0.00  0.00     0.028 H 
ENDBRANCH  33  35
BRANCH  33  39
ATOM     39  C13 non d ame      -6.392  10.956  65.887  0.00  0.00    -0.071 C 
ATOM     40  H16 non d ame      -5.398  11.371  66.055  0.00  0.00     0.028 H 
ATOM     41  H17 non d ame      -7.105  11.767  65.737  0.00  0.00     0.028 H 
ATOM     42  H18 non d ame      -6.690  10.365  66.753  0.00  0.00     0.028 H 
ENDBRANCH  33  39
ENDBRANCH   7  33
ENDBRANCH   4   7
ENDBRANCH   1   3
BRANCH   1  43
ATOM     43  C15 non d ame     -10.094   7.060  67.643  0.00  0.00     0.240 C 
ATOM     44  O5  non d ame     -11.196   6.612  67.627  0.00  0.00    -0.271 OA
ATOM     45  N6  non d ame      -9.604   7.780  68.853  0.00  0.00    -0.355 N 
ATOM     46  H46 non d ame      -8.669   8.160  68.880  0.00  0.00     0.162 HD
BRANCH  45  47
ATOM     47  C20 non d ame     -10.495   7.939  70.022  0.00  0.00     0.013 C 
ATOM     48  H30 non d ame     -11.498   7.635  69.722  0.00  0.00     0.072 H 
BRANCH  47  49
ATOM     49  C21 non d ame     -10.503   9.389  70.451  0.00  0.00    -0.038 C 
ATOM     50  H31 non d ame     -10.231   9.385  71.507  0.00  0.00     0.036 H 
ATOM     51  H32 non d ame      -9.877   9.913  69.727  0.00  0.00     0.036 H 
BRANCH  49  52
ATOM     52  C22 non d ame     -11.903  10.033  70.362  0.00  0.00     0.018 C 
ATOM     53  H33 non d ame     -12.559   9.262  69.956  0.00  0.00     0.048 H 
ATOM     54  H34 non d ame     -12.099  10.450  71.351  0.00  0.00     0.048 H 
BRANCH  52  55
ATOM     55  C23 non d ame     -11.981  11.226  69.370  0.00  0.00     0.259 C 
ATOM     56  O7  non d ame     -12.073  11.033  68.201  0.00  0.00    -0.265 OA
BRANCH  55  57
ATOM     57  O8  non d ame     -11.927  12.556  69.871  0.00  0.00    -0.317 OA
BRANCH  57  58
ATOM     58  C29 non d ame     -13.091  12.951  70.603  0.00  0.00     0.052 C 
ATOM     59  H47 non d ame     -13.804  13.302  69.857  0.00  0.00     0.082 H 
ATOM     60  H48 non d ame     -13.342  12.102  71.239  0.00  0.00     0.082 H 
BRANCH  58  61
ATOM     61  C35 non d ame     -12.702  14.148  71.512  0.00  0.00    -0.034 A 
ATOM     62  C30 non d ame     -11.976  15.212  70.989  0.00  0.00    -0.075 A 
ATOM     63  C31 non d ame     -11.626  16.287  71.805  0.00  0.00    -0.082 A 
ATOM     64  H49 non d ame     -11.680  15.204  69.940  0.00  0.00     0.084 H 
ATOM     65  C32 non d ame     -12.005  16.293  73.150  0.00  0.00    -0.083 A 
ATOM     66  H50 non d ame     -11.058  17.120  71.392  0.00  0.00     0.083 H 
ATOM     67  C33 non d ame     -12.727  15.227  73.669  0.00  0.00    -0.082 A 
ATOM     68  H51 non d ame     -11.736  17.130  73.795  0.00  0.00     0.083 H 
ATOM     69  C34 non d ame     -13.081  14.152  72.855  0.00  0.00    -0.075 A 
ATOM     70  H52 non d ame     -13.019  15.234  74.719  0.00  0.00     0.083 H 
ATOM     71  H53 non d ame     -13.650  13.319  73.270  0.00  0.00     0.084 H 
ENDBRANCH  58  61
ENDBRANCH  57  58
ENDBRANCH  55  57
ENDBRANCH  52  55
ENDBRANCH  49  52
ENDBRANCH  47  49
BRANCH  47  72
ATOM     72  C24 non d ame      -9.998   7.069  71.173  0.00  0.00    -0.039 C 
ATOM     73  H35 non d ame     -10.737   6.275  71.279  0.00  0.00     0.036 H 
ATOM     74  H36 non d ame      -8.965   6.821  70.925  0.00  0.00     0.036 H 
BRANCH  72  75
ATOM     75  C25 non d ame      -9.970   7.876  72.557  0.00  0.00    -0.001 C 
ATOM     76  C26 non d ame      -8.423   8.002  73.101  0.00  0.00    -0.035 C 
ATOM     77  C27 non d ame      -8.378   7.583  74.388  0.00  0.00     0.085 C 
ATOM     78  H38 non d ame      -7.784   7.290  72.579  0.00  0.00     0.036 H 
ATOM     79  H39 non d ame      -8.133   9.051  73.164  0.00  0.00     0.036 H 
ATOM     80  N5  non d ame      -9.682   6.878  74.670  0.00  0.00    -0.049 N 
ATOM     81  H40 non d ame      -7.565   6.858  74.431  0.00  0.00     0.075 H 
ATOM     82  H41 non d ame      -8.330   8.492  74.988  0.00  0.00     0.075 H 
ATOM     83  C28 non d ame     -10.674   7.279  73.460  0.00  0.00     0.193 C 
ATOM     84  H42 non d ame      -9.491   5.888  74.613  0.00  0.00     0.280 HD
ATOM     85  H43 non d ame     -10.044   7.274  75.526  0.00  0.00     0.280 HD
ATOM     86  H44 non d ame     -11.465   8.014  73.613  0.00  0.00     0.129 H 
ATOM     87  H37 non d ame     -10.556   8.793  72.511  0.00  0.00     0.046 H 
BRANCH  83  88
ATOM     88  O6  non d ame     -11.327   6.115  72.953  0.00  0.00    -0.369 OA
ATOM     89  H45 non d ame     -12.188   6.025  73.367  0.00  0.00     0.212 HD
ENDBRANCH  83  88
ENDBRANCH  72  75
ENDBRANCH  47  72
ENDBRANCH  45  47
ENDBRANCH   1  43
BRANCH   1  90
ATOM     90  C16 non d ame      -7.950   6.057  66.792  0.00  0.00    -0.035 C 
ATOM     91  H21 non d ame      -7.092   6.624  66.431  0.00  0.00     0.037 H 
ATOM     92  H22 non d ame      -8.063   5.859  67.857  0.00  0.00     0.037 H 
BRANCH  90  93
ATOM     93  C17 non d ame      -7.886   4.665  66.087  0.00  0.00    -0.059 C 
ATOM     94  H23 non d ame      -7.254   4.770  65.206  0.00  0.00     0.038 H 
BRANCH  93  95
ATOM     95  C18 non d ame      -7.253   3.569  67.001  0.00  0.00    -0.073 C 
ATOM     96  H24 non d ame      -7.620   2.588  66.699  0.00  0.00     0.028 H 
ATOM     97  H25 non d ame      -6.168   3.596  66.903  0.00  0.00     0.028 H 
ATOM     98  H26 non d ame      -7.529   3.757  68.039  0.00  0.00     0.028 H 
ENDBRANCH  93  95
BRANCH  93  99
ATOM     99  C19 non d ame      -9.273   4.236  65.600  0.00  0.00    -0.073 C 
ATOM    100  H27 non d ame      -9.403   4.539  64.562  0.00  0.00     0.028 H 
ATOM    101  H28 non d ame      -9.365   3.152  65.677  0.00  0.00     0.028 H 
ATOM    102  H29 non d ame     -10.037   4.710  66.216  0.00  0.00     0.028 H 
ENDBRANCH  93  99
ENDBRANCH  90  93
ENDBRANCH   1  90
TORSDOF 26
ENDMDL
MODEL 16
REMARK VINA RESULT:      -6.3      2.455      6.380
REMARK  26 active torsions:
REMARK  status: ('A' for Active; 'I' for Inactive)
REMARK    1  A    between atoms: C2_2  and  C3_3 
REMARK    2  A    between atoms: C4_6  and  C5_7 
REMARK       I    between atoms: C5_7  and  N2_9 
REMARK    3  A    between atoms: N2_9  and  C6_10 
REMARK    4  A    between atoms: C6_10  and  C7_11 
REMARK    5  A    between atoms: C6_10  and  C8_13 
REMARK       I    between atoms: C7_11  and  N3_14 
REMARK    6  A    between atoms: N3_14  and  C9_15 
REMARK    7  A    between atoms: C9_15  and  C10_16 
REMARK    8  A    between atoms: C9_15  and  C11_18 
REMARK       I    between atoms: C10_16  and  N4_21 
REMARK    9  A    between atoms: C11_18  and  C12_19 
REMARK   10  A    between atoms: C11_18  and  C13_20 
REMARK   11  A    between atoms: N4_21  and  C14_22 
REMARK   12  A    between atoms: C14_22  and  C15_23 
REMARK   13  A    between atoms: C14_22  and  C16_25 
REMARK       I    between atoms: C15_23  and  N6_40 
REMARK   14  A    between atoms: C16_25  and  C17_26 
REMARK   15  A    between atoms: C17_26  and  C18_27 
REMARK   16  A    between atoms: C17_26  and  C19_28 
REMARK   17  A    between atoms: C20_29  and  C21_30 
REMARK   18  A    between atoms: C20_29  and  C24_33 
REMARK   19  A    between atoms: C20_29  and  N6_40 
REMARK   20  A    between atoms: C21_30  and  C22_31 
REMARK   21  A    between atoms: C22_31  and  C23_32 
REMARK   22  A    between atoms: C23_32  and  O8_43 
REMARK   23  A    between atoms: C24_33  and  C25_34 
REMARK   24  A    between atoms: C28_38  and  O6_39 
REMARK   25  A    between atoms: C29_42  and  O8_43 
REMARK   26  A    between atoms: C29_42  and  C35_49 
ROOT
ATOM      1  C14 non d ame      -7.404   9.877  65.328  0.00  0.00     0.089 C 
ATOM      2  H20 non d ame      -6.621  10.017  66.072  0.00  0.00     0.087 H 
ENDROOT
BRANCH   1   3
ATOM      3  N4  non d ame      -7.612   8.445  65.173  0.00  0.00    -0.346 N 
ATOM      4  C10 non d ame      -6.495   7.477  65.473  0.00  0.00     0.241 C 
ATOM      5  O4  non d ame      -5.437   7.874  65.835  0.00  0.00    -0.271 OA
ATOM      6  H19 non d ame      -8.519   8.128  64.862  0.00  0.00     0.163 HD
BRANCH   4   7
ATOM      7  C9  non d ame      -6.729   5.998  65.313  0.00  0.00     0.092 C 
ATOM      8  H11 non d ame      -6.086   5.456  66.006  0.00  0.00     0.088 H 
BRANCH   7   9
ATOM      9  N3  non d ame      -8.115   5.680  65.671  0.00  0.00    -0.346 N 
ATOM     10  C7  non d ame      -8.439   5.283  67.018  0.00  0.00     0.240 C 
ATOM     11  O3  non d ame      -7.596   5.211  67.828  0.00  0.00    -0.271 OA
ATOM     12  H10 non d ame      -8.852   5.736  64.983  0.00  0.00     0.163 HD
BRANCH  10  13
ATOM     13  C6  non d ame      -9.915   4.943  67.392  0.00  0.00     0.086 C 
ATOM     14  H6  non d ame      -9.995   4.081  68.055  0.00  0.00     0.086 H 
BRANCH  13  15
ATOM     15  N2  non d ame     -10.492   6.071  68.105  0.00  0.00    -0.343 N 
ATOM     16  C5  non d ame     -10.656   5.997  69.558  0.00  0.00     0.273 C 
ATOM     17  O2  non d ame     -10.323   5.027  70.144  0.00  0.00    -0.266 OA
ATOM     18  H5  non d ame     -10.776   6.895  67.596  0.00  0.00     0.163 HD
BRANCH  16  19
ATOM     19  C4  non d ame     -11.262   7.183  70.325  0.00  0.00     0.154 A 
ATOM     20  C1  non d ame     -12.491   7.200  71.059  0.00  0.00    -0.017 A 
ATOM     21  C2  non d ame     -12.591   8.514  71.570  0.00  0.00     0.077 A 
ATOM     22  H1  non d ame     -13.201   6.385  71.200  0.00  0.00     0.091 H 
ATOM     23  O1  non d ame     -11.537   9.166  71.172  0.00  0.00    -0.218 OA
ATOM     24  N1  non d ame     -10.748   8.410  70.443  0.00  0.00    -0.123 NA
BRANCH  21  25
ATOM     25  C3  non d ame     -13.721   9.063  72.429  0.00  0.00    -0.029 C 
ATOM     26  H2  non d ame     -13.859  10.124  72.215  0.00  0.00     0.036 H 
ATOM     27  H3  non d ame     -14.642   8.525  72.206  0.00  0.00     0.036 H 
ATOM     28  H4  non d ame     -13.473   8.935  73.483  0.00  0.00     0.036 H 
ENDBRANCH  21  25
ENDBRANCH  16  19
ENDBRANCH  13  15
BRANCH  13  29
ATOM     29  C8  non d ame     -10.704   4.667  66.138  0.00  0.00    -0.049 C 
ATOM     30  H7  non d ame     -10.022   4.568  65.293  0.00  0.00     0.030 H 
ATOM     31  H8  non d ame     -11.268   3.741  66.259  0.00  0.00     0.030 H 
ATOM     32  H9  non d ame     -11.393   5.491  65.953  0.00  0.00     0.030 H 
ENDBRANCH  13  29
ENDBRANCH  10  13
ENDBRANCH   7   9
BRANCH   7  33
ATOM     33  C11 non d ame      -6.472   5.588  63.833  0.00  0.00    -0.033 C 
ATOM     34  H12 non d ame      -6.217   4.528  63.825  0.00  0.00     0.042 H 
BRANCH  33  35
ATOM     35  C12 non d ame      -7.753   5.769  62.962  0.00  0.00    -0.071 C 
ATOM     36  H13 non d ame      -8.507   5.044  63.269  0.00  0.00     0.028 H 
ATOM     37  H14 non d ame      -8.145   6.777  63.096  0.00  0.00     0.028 H 
ATOM     38  H15 non d ame      -7.504   5.614  61.913  0.00  0.00     0.028 H 
ENDBRANCH  33  35
BRANCH  33  39
ATOM     39  C13 non d ame      -5.264   6.380  63.236  0.00  0.00    -0.071 C 
ATOM     40  H16 non d ame      -4.523   6.554  64.016  0.00  0.00     0.028 H 
ATOM     41  H17 non d ame      -4.815   5.803  62.428  0.00  0.00     0.028 H 
ATOM     42  H18 non d ame      -5.615   7.337  62.849  0.00  0.00     0.028 H 
ENDBRANCH  33  39
ENDBRANCH   7  33
ENDBRANCH   4   7
ENDBRANCH   1   3
BRANCH   1  43
ATOM     43  C15 non d ame      -8.749  10.529  65.760  0.00  0.00     0.240 C 
ATOM     44  O5  non d ame      -9.636   9.845  66.161  0.00  0.00    -0.271 OA
ATOM     45  N6  non d ame      -8.929  12.006  65.683  0.00  0.00    -0.355 N 
ATOM     46  H46 non d ame      -8.182  12.598  65.348  0.00  0.00     0.162 HD
BRANCH  45  47
ATOM     47  C20 non d ame     -10.213  12.611  66.099  0.00  0.00     0.013 C 
ATOM     48  H30 non d ame     -11.003  11.883  65.909  0.00  0.00     0.072 H 
BRANCH  47  49
ATOM     49  C21 non d ame     -10.462  13.864  65.290  0.00  0.00    -0.038 C 
ATOM     50  H31 non d ame     -10.088  13.648  64.289  0.00  0.00     0.036 H 
ATOM     51  H32 non d ame     -11.515  14.106  65.439  0.00  0.00     0.036 H 
BRANCH  49  52
ATOM     52  C22 non d ame      -9.659  15.078  65.804  0.00  0.00     0.018 C 
ATOM     53  H33 non d ame      -9.448  14.870  66.854  0.00  0.00     0.048 H 
ATOM     54  H34 non d ame      -8.838  15.209  65.099  0.00  0.00     0.048 H 
BRANCH  52  55
ATOM     55  C23 non d ame     -10.459  16.410  65.785  0.00  0.00     0.259 C 
ATOM     56  O7  non d ame     -10.869  16.852  64.761  0.00  0.00    -0.265 OA
BRANCH  55  57
ATOM     57  O8  non d ame     -10.684  17.106  67.005  0.00  0.00    -0.317 OA
BRANCH  57  58
ATOM     58  C29 non d ame     -10.625  18.530  66.884  0.00  0.00     0.052 C 
ATOM     59  H47 non d ame     -10.826  18.747  65.835  0.00  0.00     0.082 H 
ATOM     60  H48 non d ame     -11.287  18.920  67.657  0.00  0.00     0.082 H 
BRANCH  58  61
ATOM     61  C35 non d ame      -9.174  18.978  67.208  0.00  0.00    -0.034 A 
ATOM     62  C30 non d ame      -8.418  19.639  66.245  0.00  0.00    -0.075 A 
ATOM     63  C31 non d ame      -7.116  20.041  66.536  0.00  0.00    -0.082 A 
ATOM     64  H49 non d ame      -8.846  19.841  65.264  0.00  0.00     0.084 H 
ATOM     65  C32 non d ame      -6.569  19.778  67.795  0.00  0.00    -0.083 A 
ATOM     66  H50 non d ame      -6.526  20.560  65.780  0.00  0.00     0.083 H 
ATOM     67  C33 non d ame      -7.326  19.116  68.752  0.00  0.00    -0.082 A 
ATOM     68  H51 non d ame      -5.551  20.089  68.031  0.00  0.00     0.083 H 
ATOM     69  C34 non d ame      -8.629  18.714  68.465  0.00  0.00    -0.075 A 
ATOM     70  H52 non d ame      -6.896  18.910  69.732  0.00  0.00     0.083 H 
ATOM     71  H53 non d ame      -9.219  18.195  69.223  0.00  0.00     0.084 H 
ENDBRANCH  58  61
ENDBRANCH  57  58
ENDBRANCH  55  57
ENDBRANCH  52  55
ENDBRANCH  49  52
ENDBRANCH  47  49
BRANCH  47  72
ATOM     72  C24 non d ame     -10.161  12.963  67.583  0.00  0.00    -0.039 C 
ATOM     73  H35 non d ame      -9.550  12.188  68.045  0.00  0.00     0.036 H 
ATOM     74  H36 non d ame      -9.841  14.005  67.624  0.00  0.00     0.036 H 
BRANCH  72  75
ATOM     75  C25 non d ame     -11.611  12.889  68.261  0.00  0.00    -0.001 C 
ATOM     76  C26 non d ame     -11.978  14.331  68.961  0.00  0.00    -0.035 C 
ATOM     77  C27 non d ame     -12.364  14.111  70.240  0.00  0.00     0.085 C 
ATOM     78  H38 non d ame     -11.076  14.934  69.068  0.00  0.00     0.036 H 
ATOM     79  H39 non d ame     -12.866  14.758  68.495  0.00  0.00     0.036 H 
ATOM     80  N5  non d ame     -11.985  12.689  70.577  0.00  0.00    -0.049 N 
ATOM     81  H40 non d ame     -11.768  14.792  70.847  0.00  0.00     0.075 H 
ATOM     82  H41 non d ame     -13.451  14.195  70.234  0.00  0.00     0.075 H 
ATOM     83  C28 non d ame     -11.656  11.971  69.169  0.00  0.00     0.193 C 
ATOM     84  H42 non d ame     -11.133  12.741  71.118  0.00  0.00     0.280 HD
ATOM     85  H43 non d ame     -12.808  12.259  70.973  0.00  0.00     0.280 HD
ATOM     86  H44 non d ame     -12.371  11.282  68.719  0.00  0.00     0.129 H 
ATOM     87  H37 non d ame     -12.357  12.458  67.594  0.00  0.00     0.046 H 
BRANCH  83  88
ATOM     88  O6  non d ame     -10.430  11.243  69.261  0.00  0.00    -0.369 OA
ATOM     89  H45 non d ame     -10.617  10.302  69.277  0.00  0.00     0.212 HD
ENDBRANCH  83  88
ENDBRANCH  72  75
ENDBRANCH  47  72
ENDBRANCH  45  47
ENDBRANCH   1  43
BRANCH   1  90
ATOM     90  C16 non d ame      -6.958  10.461  63.996  0.00  0.00    -0.035 C 
ATOM     91  H21 non d ame      -7.180  11.526  64.060  0.00  0.00     0.037 H 
ATOM     92  H22 non d ame      -5.930  10.126  63.864  0.00  0.00     0.037 H 
BRANCH  90  93
ATOM     93  C17 non d ame      -7.761   9.916  62.773  0.00  0.00    -0.059 C 
ATOM     94  H23 non d ame      -8.452   9.158  63.142  0.00  0.00     0.038 H 
BRANCH  93  95
ATOM     95  C18 non d ame      -8.604  11.031  62.076  0.00  0.00    -0.073 C 
ATOM     96  H24 non d ame      -9.352  11.410  62.773  0.00  0.00     0.028 H 
ATOM     97  H25 non d ame      -7.947  11.846  61.771  0.00  0.00     0.028 H 
ATOM     98  H26 non d ame      -9.100  10.617  61.199  0.00  0.00     0.028 H 
ENDBRANCH  93  95
BRANCH  93  99
ATOM     99  C19 non d ame      -6.830   9.229  61.770  0.00  0.00    -0.073 C 
ATOM    100  H27 non d ame      -5.948   9.850  61.610  0.00  0.00     0.028 H 
ATOM    101  H28 non d ame      -6.525   8.259  62.162  0.00  0.00     0.028 H 
ATOM    102  H29 non d ame      -7.353   9.091  60.824  0.00  0.00     0.028 H 
ENDBRANCH  93  99
ENDBRANCH  90  93
ENDBRANCH   1  90
TORSDOF 26
ENDMDL
MODEL 17
REMARK VINA RESULT:      -6.3      2.795      4.943
REMARK  26 active torsions:
REMARK  status: ('A' for Active; 'I' for Inactive)
REMARK    1  A    between atoms: C2_2  and  C3_3 
REMARK    2  A    between atoms: C4_6  and  C5_7 
REMARK       I    between atoms: C5_7  and  N2_9 
REMARK    3  A    between atoms: N2_9  and  C6_10 
REMARK    4  A    between atoms: C6_10  and  C7_11 
REMARK    5  A    between atoms: C6_10  and  C8_13 
REMARK       I    between atoms: C7_11  and  N3_14 
REMARK    6  A    between atoms: N3_14  and  C9_15 
REMARK    7  A    between atoms: C9_15  and  C10_16 
REMARK    8  A    between atoms: C9_15  and  C11_18 
REMARK       I    between atoms: C10_16  and  N4_21 
REMARK    9  A    between atoms: C11_18  and  C12_19 
REMARK   10  A    between atoms: C11_18  and  C13_20 
REMARK   11  A    between atoms: N4_21  and  C14_22 
REMARK   12  A    between atoms: C14_22  and  C15_23 
REMARK   13  A    between atoms: C14_22  and  C16_25 
REMARK       I    between atoms: C15_23  and  N6_40 
REMARK   14  A    between atoms: C16_25  and  C17_26 
REMARK   15  A    between atoms: C17_26  and  C18_27 
REMARK   16  A    between atoms: C17_26  and  C19_28 
REMARK   17  A    between atoms: C20_29  and  C21_30 
REMARK   18  A    between atoms: C20_29  and  C24_33 
REMARK   19  A    between atoms: C20_29  and  N6_40 
REMARK   20  A    between atoms: C21_30  and  C22_31 
REMARK   21  A    between atoms: C22_31  and  C23_32 
REMARK   22  A    between atoms: C23_32  and  O8_43 
REMARK   23  A    between atoms: C24_33  and  C25_34 
REMARK   24  A    between atoms: C28_38  and  O6_39 
REMARK   25  A    between atoms: C29_42  and  O8_43 
REMARK   26  A    between atoms: C29_42  and  C35_49 
ROOT
ATOM      1  C14 non d ame     -10.969   9.025  69.534  0.00  0.00     0.089 C 
ATOM      2  H20 non d ame     -11.909   8.478  69.604  0.00  0.00     0.087 H 
ENDROOT
BRANCH   1   3
ATOM      3  N4  non d ame      -9.998   8.149  68.894  0.00  0.00    -0.346 N 
ATOM      4  C10 non d ame     -10.236   6.661  68.837  0.00  0.00     0.241 C 
ATOM      5  O4  non d ame     -11.215   6.191  69.317  0.00  0.00    -0.271 OA
ATOM      6  H19 non d ame      -9.170   8.569  68.495  0.00  0.00     0.163 HD
BRANCH   4   7
ATOM      7  C9  non d ame      -9.224   5.770  68.166  0.00  0.00     0.092 C 
ATOM      8  H11 non d ame      -9.745   4.985  67.618  0.00  0.00     0.088 H 
BRANCH   7   9
ATOM      9  N3  non d ame      -8.462   6.549  67.185  0.00  0.00    -0.346 N 
ATOM     10  C7  non d ame      -8.283   6.045  65.846  0.00  0.00     0.240 C 
ATOM     11  O3  non d ame      -8.744   5.013  65.540  0.00  0.00    -0.271 OA
ATOM     12  H10 non d ame      -8.057   7.439  67.435  0.00  0.00     0.163 HD
BRANCH  10  13
ATOM     13  C6  non d ame      -7.467   6.877  64.808  0.00  0.00     0.086 C 
ATOM     14  H6  non d ame      -7.538   6.477  63.797  0.00  0.00     0.086 H 
BRANCH  13  15
ATOM     15  N2  non d ame      -8.005   8.226  64.759  0.00  0.00    -0.343 N 
ATOM     16  C5  non d ame      -8.588   8.725  63.512  0.00  0.00     0.273 C 
ATOM     17  O2  non d ame      -8.617   8.035  62.553  0.00  0.00    -0.266 OA
ATOM     18  H5  non d ame      -7.974   8.811  65.582  0.00  0.00     0.163 HD
BRANCH  16  19
ATOM     19  C4  non d ame      -9.163  10.149  63.446  0.00  0.00     0.154 A 
ATOM     20  C1  non d ame      -9.958  10.807  64.437  0.00  0.00    -0.017 A 
ATOM     21  C2  non d ame     -10.226  12.086  63.899  0.00  0.00     0.077 A 
ATOM     22  H1  non d ame     -10.290  10.417  65.400  0.00  0.00     0.091 H 
ATOM     23  O1  non d ame      -9.646  12.146  62.736  0.00  0.00    -0.218 OA
ATOM     24  N1  non d ame      -9.020  11.027  62.449  0.00  0.00    -0.123 NA
BRANCH  21  25
ATOM     25  C3  non d ame     -11.039  13.190  64.560  0.00  0.00    -0.029 C 
ATOM     26  H2  non d ame     -12.057  13.177  64.169  0.00  0.00     0.036 H 
ATOM     27  H3  non d ame     -11.063  13.028  65.638  0.00  0.00     0.036 H 
ATOM     28  H4  non d ame     -10.581  14.156  64.349  0.00  0.00     0.036 H 
ENDBRANCH  21  25
ENDBRANCH  16  19
ENDBRANCH  13  15
BRANCH  13  29
ATOM     29  C8  non d ame      -6.017   6.914  65.217  0.00  0.00    -0.049 C 
ATOM     30  H7  non d ame      -5.523   5.999  64.891  0.00  0.00     0.030 H 
ATOM     31  H8  non d ame      -5.531   7.775  64.754  0.00  0.00     0.030 H 
ATOM     32  H9  non d ame      -5.947   6.997  66.301  0.00  0.00     0.030 H 
ENDBRANCH  13  29
ENDBRANCH  10  13
ENDBRANCH   7   9
BRANCH   7  33
ATOM     33  C11 non d ame      -8.252   5.192  69.235  0.00  0.00    -0.033 C 
ATOM     34  H12 non d ame      -7.306   4.976  68.736  0.00  0.00     0.042 H 
BRANCH  33  35
ATOM     35  C12 non d ame      -7.962   6.232  70.362  0.00  0.00    -0.071 C 
ATOM     36  H13 non d ame      -6.962   6.645  70.225  0.00  0.00     0.028 H 
ATOM     37  H14 non d ame      -8.696   7.035  70.313  0.00  0.00     0.028 H 
ATOM     38  H15 non d ame      -8.024   5.741  71.332  0.00  0.00     0.028 H 
ENDBRANCH  33  35
BRANCH  33  39
ATOM     39  C13 non d ame      -8.803   3.855  69.826  0.00  0.00    -0.071 C 
ATOM     40  H16 non d ame      -7.993   3.311  70.312  0.00  0.00     0.028 H 
ATOM     41  H17 non d ame      -9.584   4.073  70.555  0.00  0.00     0.028 H 
ATOM     42  H18 non d ame      -9.216   3.246  69.022  0.00  0.00     0.028 H 
ENDBRANCH  33  39
ENDBRANCH   7  33
ENDBRANCH   4   7
ENDBRANCH   1   3
BRANCH   1  43
ATOM     43  C15 non d ame     -11.103  10.320  68.684  0.00  0.00     0.240 C 
ATOM     44  O5  non d ame     -11.607  10.272  67.608  0.00  0.00    -0.271 OA
ATOM     45  N6  non d ame     -10.612  11.624  69.214  0.00  0.00    -0.355 N 
ATOM     46  H46 non d ame     -10.186  11.679  70.128  0.00  0.00     0.162 HD
BRANCH  45  47
ATOM     47  C20 non d ame     -10.749  12.847  68.394  0.00  0.00     0.013 C 
ATOM     48  H30 non d ame     -10.852  12.542  67.353  0.00  0.00     0.072 H 
BRANCH  47  49
ATOM     49  C21 non d ame      -9.513  13.703  68.562  0.00  0.00    -0.038 C 
ATOM     50  H31 non d ame      -9.595  14.146  69.555  0.00  0.00     0.036 H 
ATOM     51  H32 non d ame      -8.671  13.053  68.322  0.00  0.00     0.036 H 
BRANCH  49  52
ATOM     52  C22 non d ame      -9.457  14.877  67.562  0.00  0.00     0.018 C 
ATOM     53  H33 non d ame      -8.721  14.590  66.810  0.00  0.00     0.048 H 
ATOM     54  H34 non d ame     -10.490  15.065  67.269  0.00  0.00     0.048 H 
BRANCH  52  55
ATOM     55  C23 non d ame      -8.938  16.204  68.183  0.00  0.00     0.259 C 
ATOM     56  O7  non d ame      -8.336  16.194  69.207  0.00  0.00    -0.265 OA
BRANCH  55  57
ATOM     57  O8  non d ame      -9.203  17.434  67.521  0.00  0.00    -0.317 OA
BRANCH  57  58
ATOM     58  C29 non d ame      -9.294  18.561  68.398  0.00  0.00     0.052 C 
ATOM     59  H47 non d ame     -10.173  19.117  68.074  0.00  0.00     0.082 H 
ATOM     60  H48 non d ame      -9.250  18.152  69.408  0.00  0.00     0.082 H 
BRANCH  58  61
ATOM     61  C35 non d ame      -8.041  19.447  68.171  0.00  0.00    -0.034 A 
ATOM     62  C30 non d ame      -7.107  19.607  69.190  0.00  0.00    -0.075 A 
ATOM     63  C31 non d ame      -5.982  20.403  68.987  0.00  0.00    -0.082 A 
ATOM     64  H49 non d ame      -7.258  19.108  70.147  0.00  0.00     0.084 H 
ATOM     65  C32 non d ame      -5.792  21.043  67.759  0.00  0.00    -0.083 A 
ATOM     66  H50 non d ame      -5.251  20.525  69.787  0.00  0.00     0.083 H 
ATOM     67  C33 non d ame      -6.728  20.883  66.746  0.00  0.00    -0.082 A 
ATOM     68  H51 non d ame      -4.914  21.667  67.592  0.00  0.00     0.083 H 
ATOM     69  C34 non d ame      -7.853  20.086  66.945  0.00  0.00    -0.075 A 
ATOM     70  H52 non d ame      -6.578  21.386  65.790  0.00  0.00     0.083 H 
ATOM     71  H53 non d ame      -8.584  19.965  66.143  0.00  0.00     0.084 H 
ENDBRANCH  58  61
ENDBRANCH  57  58
ENDBRANCH  55  57
ENDBRANCH  52  55
ENDBRANCH  49  52
ENDBRANCH  47  49
BRANCH  47  72
ATOM     72  C24 non d ame     -11.979  13.634  68.841  0.00  0.00    -0.039 C 
ATOM     73  H35 non d ame     -12.010  14.514  68.200  0.00  0.00     0.036 H 
ATOM     74  H36 non d ame     -12.802  12.919  68.826  0.00  0.00     0.036 H 
BRANCH  72  75
ATOM     75  C25 non d ame     -11.834  14.153  70.350  0.00  0.00    -0.001 C 
ATOM     76  C26 non d ame     -12.828  13.293  71.338  0.00  0.00    -0.035 C 
ATOM     77  C27 non d ame     -13.571  14.157  72.069  0.00  0.00     0.085 C 
ATOM     78  H38 non d ame     -13.569  12.757  70.746  0.00  0.00     0.036 H 
ATOM     79  H39 non d ame     -12.242  12.762  72.088  0.00  0.00     0.036 H 
ATOM     80  N5  non d ame     -13.410  15.520  71.441  0.00  0.00    -0.049 N 
ATOM     81  H40 non d ame     -14.604  13.829  71.947  0.00  0.00     0.075 H 
ATOM     82  H41 non d ame     -13.115  14.168  73.059  0.00  0.00     0.075 H 
ATOM     83  C28 non d ame     -12.144  15.404  70.445  0.00  0.00     0.193 C 
ATOM     84  H42 non d ame     -14.240  15.680  70.887  0.00  0.00     0.280 HD
ATOM     85  H43 non d ame     -13.173  16.155  72.189  0.00  0.00     0.280 HD
ATOM     86  H44 non d ame     -11.179  15.827  70.725  0.00  0.00     0.129 H 
ATOM     87  H37 non d ame     -10.792  14.248  70.655  0.00  0.00     0.046 H 
BRANCH  83  88
ATOM     88  O6  non d ame     -12.460  15.979  69.177  0.00  0.00    -0.369 OA
ATOM     89  H45 non d ame     -11.720  16.508  68.872  0.00  0.00     0.212 HD
ENDBRANCH  83  88
ENDBRANCH  72  75
ENDBRANCH  47  72
ENDBRANCH  45  47
ENDBRANCH   1  43
BRANCH   1  90
ATOM     90  C16 non d ame     -10.475   9.377  70.929  0.00  0.00    -0.035 C 
ATOM     91  H21 non d ame      -9.497   8.904  71.017  0.00  0.00     0.037 H 
ATOM     92  H22 non d ame     -10.564  10.461  71.001  0.00  0.00     0.037 H 
BRANCH  90  93
ATOM     93  C17 non d ame     -11.356   8.784  72.074  0.00  0.00    -0.059 C 
ATOM     94  H23 non d ame     -11.448   9.546  72.848  0.00  0.00     0.038 H 
BRANCH  93  95
ATOM     95  C18 non d ame     -12.794   8.423  71.585  0.00  0.00    -0.073 C 
ATOM     96  H24 non d ame     -13.489   8.489  72.423  0.00  0.00     0.028 H 
ATOM     97  H25 non d ame     -13.099   9.121  70.806  0.00  0.00     0.028 H 
ATOM     98  H26 non d ame     -12.799   7.409  71.187  0.00  0.00     0.028 H 
ENDBRANCH  93  95
BRANCH  93  99
ATOM     99  C19 non d ame     -10.676   7.570  72.713  0.00  0.00    -0.073 C 
ATOM    100  H27 non d ame      -9.594   7.705  72.688  0.00  0.00     0.028 H 
ATOM    101  H28 non d ame     -11.007   7.470  73.746  0.00  0.00     0.028 H 
ATOM    102  H29 non d ame     -10.942   6.671  72.157  0.00  0.00     0.028 H 
ENDBRANCH  93  99
ENDBRANCH  90  93
ENDBRANCH   1  90
TORSDOF 26
ENDMDL
MODEL 18
REMARK VINA RESULT:      -6.3      2.031      5.076
REMARK  26 active torsions:
REMARK  status: ('A' for Active; 'I' for Inactive)
REMARK    1  A    between atoms: C2_2  and  C3_3 
REMARK    2  A    between atoms: C4_6  and  C5_7 
REMARK       I    between atoms: C5_7  and  N2_9 
REMARK    3  A    between atoms: N2_9  and  C6_10 
REMARK    4  A    between atoms: C6_10  and  C7_11 
REMARK    5  A    between atoms: C6_10  and  C8_13 
REMARK       I    between atoms: C7_11  and  N3_14 
REMARK    6  A    between atoms: N3_14  and  C9_15 
REMARK    7  A    between atoms: C9_15  and  C10_16 
REMARK    8  A    between atoms: C9_15  and  C11_18 
REMARK       I    between atoms: C10_16  and  N4_21 
REMARK    9  A    between atoms: C11_18  and  C12_19 
REMARK   10  A    between atoms: C11_18  and  C13_20 
REMARK   11  A    between atoms: N4_21  and  C14_22 
REMARK   12  A    between atoms: C14_22  and  C15_23 
REMARK   13  A    between atoms: C14_22  and  C16_25 
REMARK       I    between atoms: C15_23  and  N6_40 
REMARK   14  A    between atoms: C16_25  and  C17_26 
REMARK   15  A    between atoms: C17_26  and  C18_27 
REMARK   16  A    between atoms: C17_26  and  C19_28 
REMARK   17  A    between atoms: C20_29  and  C21_30 
REMARK   18  A    between atoms: C20_29  and  C24_33 
REMARK   19  A    between atoms: C20_29  and  N6_40 
REMARK   20  A    between atoms: C21_30  and  C22_31 
REMARK   21  A    between atoms: C22_31  and  C23_32 
REMARK   22  A    between atoms: C23_32  and  O8_43 
REMARK   23  A    between atoms: C24_33  and  C25_34 
REMARK   24  A    between atoms: C28_38  and  O6_39 
REMARK   25  A    between atoms: C29_42  and  O8_43 
REMARK   26  A    between atoms: C29_42  and  C35_49 
ROOT
ATOM      1  C14 non d ame      -7.934  11.304  69.114  0.00  0.00     0.089 C 
ATOM      2  H20 non d ame      -8.410  11.797  69.961  0.00  0.00     0.087 H 
ENDROOT
BRANCH   1   3
ATOM      3  N4  non d ame      -8.434   9.939  69.062  0.00  0.00    -0.346 N 
ATOM      4  C10 non d ame      -9.896   9.654  69.298  0.00  0.00     0.241 C 
ATOM      5  O4  non d ame     -10.650  10.541  69.529  0.00  0.00    -0.271 OA
ATOM      6  H19 non d ame      -7.775   9.198  68.867  0.00  0.00     0.163 HD
BRANCH   4   7
ATOM      7  C9  non d ame     -10.398   8.235  69.236  0.00  0.00     0.092 C 
ATOM      8  H11 non d ame     -11.397   8.227  68.799  0.00  0.00     0.088 H 
BRANCH   7   9
ATOM      9  N3  non d ame      -9.533   7.449  68.350  0.00  0.00    -0.346 N 
ATOM     10  C7  non d ame     -10.089   6.798  67.191  0.00  0.00     0.240 C 
ATOM     11  O3  non d ame     -11.232   6.894  66.955  0.00  0.00    -0.271 OA
ATOM     12  H10 non d ame      -8.546   7.356  68.542  0.00  0.00     0.163 HD
BRANCH  10  13
ATOM     13  C6  non d ame      -9.164   5.960  66.255  0.00  0.00     0.086 C 
ATOM     14  H6  non d ame      -9.714   5.449  65.464  0.00  0.00     0.086 H 
BRANCH  13  15
ATOM     15  N2  non d ame      -8.226   6.854  65.597  0.00  0.00    -0.343 N 
ATOM     16  C5  non d ame      -7.847   6.603  64.204  0.00  0.00     0.273 C 
ATOM     17  O2  non d ame      -8.301   5.680  63.623  0.00  0.00    -0.266 OA
ATOM     18  H5  non d ame      -7.841   7.639  66.101  0.00  0.00     0.163 HD
BRANCH  16  19
ATOM     19  C4  non d ame      -6.858   7.541  63.495  0.00  0.00     0.154 A 
ATOM     20  C1  non d ame      -5.452   7.659  63.738  0.00  0.00    -0.017 A 
ATOM     21  C2  non d ame      -5.008   8.649  62.834  0.00  0.00     0.077 A 
ATOM     22  H1  non d ame      -4.847   7.110  64.460  0.00  0.00     0.091 H 
ATOM     23  O1  non d ame      -6.045   9.046  62.154  0.00  0.00    -0.218 OA
ATOM     24  N1  non d ame      -7.136   8.415  62.523  0.00  0.00    -0.123 NA
BRANCH  21  25
ATOM     25  C3  non d ame      -3.581   9.156  62.682  0.00  0.00    -0.029 C 
ATOM     26  H2  non d ame      -3.543  10.219  62.924  0.00  0.00     0.036 H 
ATOM     27  H3  non d ame      -2.926   8.606  63.358  0.00  0.00     0.036 H 
ATOM     28  H4  non d ame      -3.249   9.006  61.654  0.00  0.00     0.036 H 
ENDBRANCH  21  25
ENDBRANCH  16  19
ENDBRANCH  13  15
BRANCH  13  29
ATOM     29  C8  non d ame      -8.416   4.935  67.069  0.00  0.00    -0.049 C 
ATOM     30  H7  non d ame      -7.990   5.412  67.951  0.00  0.00     0.030 H 
ATOM     31  H8  non d ame      -9.103   4.145  67.378  0.00  0.00     0.030 H 
ATOM     32  H9  non d ame      -7.617   4.505  66.466  0.00  0.00     0.030 H 
ENDBRANCH  13  29
ENDBRANCH  10  13
ENDBRANCH   7   9
BRANCH   7  33
ATOM     33  C11 non d ame     -10.377   7.614  70.663  0.00  0.00    -0.033 C 
ATOM     34  H12 non d ame      -9.638   8.162  71.249  0.00  0.00     0.042 H 
BRANCH  33  35
ATOM     35  C12 non d ame     -11.756   7.780  71.375  0.00  0.00    -0.071 C 
ATOM     36  H13 non d ame     -12.290   8.625  70.940  0.00  0.00     0.028 H 
ATOM     37  H14 non d ame     -12.344   6.872  71.244  0.00  0.00     0.028 H 
ATOM     38  H15 non d ame     -11.596   7.958  72.438  0.00  0.00     0.028 H 
ENDBRANCH  33  35
BRANCH  33  39
ATOM     39  C13 non d ame      -9.941   6.115  70.614  0.00  0.00    -0.071 C 
ATOM     40  H16 non d ame     -10.789   5.500  70.313  0.00  0.00     0.028 H 
ATOM     41  H17 non d ame      -9.131   5.995  69.894  0.00  0.00     0.028 H 
ATOM     42  H18 non d ame      -9.599   5.805  71.601  0.00  0.00     0.028 H 
ENDBRANCH  33  39
ENDBRANCH   7  33
ENDBRANCH   4   7
ENDBRANCH   1   3
BRANCH   1  43
ATOM     43  C15 non d ame      -8.264  12.004  67.764  0.00  0.00     0.240 C 
ATOM     44  O5  non d ame      -7.524  11.886  66.840  0.00  0.00    -0.271 OA
ATOM     45  N6  non d ame      -9.507  12.813  67.619  0.00  0.00    -0.355 N 
ATOM     46  H46 non d ame     -10.146  12.917  68.395  0.00  0.00     0.162 HD
BRANCH  45  47
ATOM     47  C20 non d ame      -9.808  13.470  66.329  0.00  0.00     0.013 C 
ATOM     48  H30 non d ame      -9.273  12.933  65.546  0.00  0.00     0.072 H 
BRANCH  47  49
ATOM     49  C21 non d ame      -9.341  14.908  66.379  0.00  0.00    -0.038 C 
ATOM     50  H31 non d ame      -8.272  14.878  66.166  0.00  0.00     0.036 H 
ATOM     51  H32 non d ame     -10.014  15.458  65.721  0.00  0.00     0.036 H 
BRANCH  49  52
ATOM     52  C22 non d ame      -9.490  15.538  67.781  0.00  0.00     0.018 C 
ATOM     53  H33 non d ame      -9.914  14.757  68.413  0.00  0.00     0.048 H 
ATOM     54  H34 non d ame      -8.514  15.962  68.019  0.00  0.00     0.048 H 
BRANCH  52  55
ATOM     55  C23 non d ame     -10.496  16.721  67.831  0.00  0.00     0.259 C 
ATOM     56  O7  non d ame     -10.364  17.655  67.109  0.00  0.00    -0.265 OA
BRANCH  55  57
ATOM     57  O8  non d ame     -11.572  16.683  68.760  0.00  0.00    -0.317 OA
BRANCH  57  58
ATOM     58  C29 non d ame     -11.981  15.361  69.125  0.00  0.00     0.052 C 
ATOM     59  H47 non d ame     -12.879  15.158  68.542  0.00  0.00     0.082 H 
ATOM     60  H48 non d ame     -11.098  14.734  69.000  0.00  0.00     0.082 H 
BRANCH  58  61
ATOM     61  C35 non d ame     -12.364  15.376  70.628  0.00  0.00    -0.034 A 
ATOM     62  C30 non d ame     -11.651  16.170  71.521  0.00  0.00    -0.075 A 
ATOM     63  C31 non d ame     -11.995  16.183  72.871  0.00  0.00    -0.082 A 
ATOM     64  H49 non d ame     -10.824  16.781  71.162  0.00  0.00     0.084 H 
ATOM     65  C32 non d ame     -13.055  15.397  73.329  0.00  0.00    -0.083 A 
ATOM     66  H50 non d ame     -11.436  16.807  73.568  0.00  0.00     0.083 H 
ATOM     67  C33 non d ame     -13.762  14.603  72.436  0.00  0.00    -0.082 A 
ATOM     68  H51 non d ame     -13.331  15.401  74.384  0.00  0.00     0.083 H 
ATOM     69  C34 non d ame     -13.423  14.589  71.084  0.00  0.00    -0.075 A 
ATOM     70  H52 non d ame     -14.588  13.989  72.797  0.00  0.00     0.083 H 
ATOM     71  H53 non d ame     -13.984  13.963  70.388  0.00  0.00     0.084 H 
ENDBRANCH  58  61
ENDBRANCH  57  58
ENDBRANCH  55  57
ENDBRANCH  52  55
ENDBRANCH  49  52
ENDBRANCH  47  49
BRANCH  47  72
ATOM     72  C24 non d ame     -11.312  13.431  66.068  0.00  0.00    -0.039 C 
ATOM     73  H35 non d ame     -11.768  13.202  67.031  0.00  0.00     0.036 H 
ATOM     74  H36 non d ame     -11.544  14.371  65.565  0.00  0.00     0.036 H 
BRANCH  72  75
ATOM     75  C25 non d ame     -11.708  12.248  65.064  0.00  0.00    -0.001 C 
ATOM     76  C26 non d ame     -10.445  11.209  64.895  0.00  0.00    -0.035 C 
ATOM     77  C27 non d ame     -10.202  11.027  63.575  0.00  0.00     0.085 C 
ATOM     78  H38 non d ame      -9.529  11.672  65.260  0.00  0.00     0.036 H 
ATOM     79  H39 non d ame     -10.729  10.215  65.241  0.00  0.00     0.036 H 
ATOM     80  N5  non d ame     -10.969  12.095  62.834  0.00  0.00    -0.049 N 
ATOM     81  H40 non d ame      -9.134  11.203  63.447  0.00  0.00     0.075 H 
ATOM     82  H41 non d ame     -10.628  10.053  63.332  0.00  0.00     0.075 H 
ATOM     83  C28 non d ame     -12.018  12.709  63.897  0.00  0.00     0.193 C 
ATOM     84  H42 non d ame     -10.300  12.813  62.592  0.00  0.00     0.280 HD
ATOM     85  H43 non d ame     -11.487  11.624  62.106  0.00  0.00     0.280 HD
ATOM     86  H44 non d ame     -13.074  12.440  63.851  0.00  0.00     0.129 H 
ATOM     87  H37 non d ame     -12.679  11.813  65.301  0.00  0.00     0.046 H 
BRANCH  83  88
ATOM     88  O6  non d ame     -11.984  14.136  63.855  0.00  0.00    -0.369 OA
ATOM     89  H45 non d ame     -11.141  14.446  64.192  0.00  0.00     0.212 HD
ENDBRANCH  83  88
ENDBRANCH  72  75
ENDBRANCH  47  72
ENDBRANCH  45  47
ENDBRANCH   1  43
BRANCH   1  90
ATOM     90  C16 non d ame      -6.426  11.274  69.318  0.00  0.00    -0.035 C 
ATOM     91  H21 non d ame      -6.228  10.349  69.859  0.00  0.00     0.037 H 
ATOM     92  H22 non d ame      -5.998  11.429  68.328  0.00  0.00     0.037 H 
BRANCH  90  93
ATOM     93  C17 non d ame      -5.893  12.434  70.217  0.00  0.00    -0.059 C 
ATOM     94  H23 non d ame      -6.743  12.854  70.754  0.00  0.00     0.038 H 
BRANCH  93  95
ATOM     95  C18 non d ame      -4.861  11.933  71.276  0.00  0.00    -0.073 C 
ATOM     96  H24 non d ame      -4.735  10.854  71.179  0.00  0.00     0.028 H 
ATOM     97  H25 non d ame      -3.902  12.425  71.111  0.00  0.00     0.028 H 
ATOM     98  H26 non d ame      -5.222  12.169  72.277  0.00  0.00     0.028 H 
ENDBRANCH  93  95
BRANCH  93  99
ATOM     99  C19 non d ame      -5.297  13.557  69.363  0.00  0.00    -0.073 C 
ATOM    100  H27 non d ame      -4.238  13.668  69.599  0.00  0.00     0.028 H 
ATOM    101  H28 non d ame      -5.410  13.310  68.307  0.00  0.00     0.028 H 
ATOM    102  H29 non d ame      -5.817  14.490  69.576  0.00  0.00     0.028 H 
ENDBRANCH  93  99
ENDBRANCH  90  93
ENDBRANCH   1  90
TORSDOF 26
ENDMDL
