MODEL 1
REMARK VINA RESULT:      -7.3      0.000      0.000
REMARK  26 active torsions:
REMARK  status: ('A' for Active; 'I' for Inactive)
REMARK    1  A    between atoms: C2_2  and  C3_3 
REMARK    2  A    between atoms: C4_6  and  C5_7 
REMARK       I    between atoms: C5_7  and  N2_9 
REMARK    3  A    between atoms: N2_9  and  C6_10 
REMARK    4  A    between atoms: C6_10  and  C7_11 
REMARK    5  A    between atoms: C6_10  and  C8_13 
REMARK       I    between atoms: C7_11  and  N3_14 
REMARK    6  A    between atoms: N3_14  and  C9_15 
REMARK    7  A    between atoms: C9_15  and  C10_16 
REMARK    8  A    between atoms: C9_15  and  C11_18 
REMARK       I    between atoms: C10_16  and  N4_21 
REMARK    9  A    between atoms: C11_18  and  C12_19 
REMARK   10  A    between atoms: C11_18  and  C13_20 
REMARK   11  A    between atoms: N4_21  and  C14_22 
REMARK   12  A    between atoms: C14_22  and  C15_23 
REMARK   13  A    between atoms: C14_22  and  C16_25 
REMARK       I    between atoms: C15_23  and  N6_40 
REMARK   14  A    between atoms: C16_25  and  C17_26 
REMARK   15  A    between atoms: C17_26  and  C18_27 
REMARK   16  A    between atoms: C17_26  and  C19_28 
REMARK   17  A    between atoms: C20_29  and  C21_30 
REMARK   18  A    between atoms: C20_29  and  C24_33 
REMARK   19  A    between atoms: C20_29  and  N6_40 
REMARK   20  A    between atoms: C21_30  and  C22_31 
REMARK   21  A    between atoms: C22_31  and  C23_32 
REMARK   22  A    between atoms: C23_32  and  O8_43 
REMARK   23  A    between atoms: C24_33  and  C25_34 
REMARK   24  A    between atoms: C28_38  and  O6_39 
REMARK   25  A    between atoms: C29_42  and  O8_43 
REMARK   26  A    between atoms: C29_42  and  C35_49 
ROOT
ATOM      1  C14 non d ame     -12.120  14.714  70.511  0.00  0.00     0.089 C 
ATOM      2  H20 non d ame     -13.209  14.696  70.525  0.00  0.00     0.087 H 
ENDROOT
BRANCH   1   3
ATOM      3  N4  non d ame     -11.663  13.386  70.131  0.00  0.00    -0.346 N 
ATOM      4  C10 non d ame     -12.311  12.160  70.723  0.00  0.00     0.241 C 
ATOM      5  O4  non d ame     -13.197  12.268  71.506  0.00  0.00    -0.271 OA
ATOM      6  H19 non d ame     -10.905  13.316  69.466  0.00  0.00     0.163 HD
BRANCH   4   7
ATOM      7  C9  non d ame     -11.829  10.793  70.315  0.00  0.00     0.092 C 
ATOM      8  H11 non d ame     -12.391  10.460  69.441  0.00  0.00     0.088 H 
BRANCH   7   9
ATOM      9  N3  non d ame     -10.420  10.868  69.919  0.00  0.00    -0.346 N 
ATOM     10  C7  non d ame     -10.068  11.231  68.568  0.00  0.00     0.240 C 
ATOM     11  O3  non d ame     -10.907  11.463  67.786  0.00  0.00    -0.271 OA
ATOM     12  H10 non d ame      -9.685  10.669  70.583  0.00  0.00     0.163 HD
BRANCH  10  13
ATOM     13  C6  non d ame      -8.566  11.306  68.153  0.00  0.00     0.086 C 
ATOM     14  H6  non d ame      -8.420  11.208  67.077  0.00  0.00     0.086 H 
BRANCH  13  15
ATOM     15  N2  non d ame      -8.039  12.608  68.527  0.00  0.00    -0.343 N 
ATOM     16  C5  non d ame      -6.885  13.152  67.807  0.00  0.00     0.273 C 
ATOM     17  O2  non d ame      -6.388  12.534  66.931  0.00  0.00    -0.266 OA
ATOM     18  H5  non d ame      -8.468  13.129  69.278  0.00  0.00     0.163 HD
BRANCH  16  19
ATOM     19  C4  non d ame      -6.319  14.529  68.189  0.00  0.00     0.154 A 
ATOM     20  C1  non d ame      -6.273  15.112  69.496  0.00  0.00    -0.017 A 
ATOM     21  C2  non d ame      -5.663  16.373  69.310  0.00  0.00     0.077 A 
ATOM     22  H1  non d ame      -6.629  14.687  70.435  0.00  0.00     0.091 H 
ATOM     23  O1  non d ame      -5.392  16.489  68.042  0.00  0.00    -0.218 OA
ATOM     24  N1  non d ame      -5.766  15.426  67.368  0.00  0.00    -0.123 NA
BRANCH  21  25
ATOM     25  C3  non d ame      -5.374  17.403  70.393  0.00  0.00    -0.029 C 
ATOM     26  H2  non d ame      -4.463  17.126  70.925  0.00  0.00     0.036 H 
ATOM     27  H3  non d ame      -5.244  18.383  69.936  0.00  0.00     0.036 H 
ATOM     28  H4  non d ame      -6.208  17.437  71.095  0.00  0.00     0.036 H 
ENDBRANCH  21  25
ENDBRANCH  16  19
ENDBRANCH  13  15
BRANCH  13  29
ATOM     29  C8  non d ame      -7.793  10.217  68.851  0.00  0.00    -0.049 C 
ATOM     30  H7  non d ame      -6.739  10.288  68.580  0.00  0.00     0.030 H 
ATOM     31  H8  non d ame      -7.898  10.332  69.931  0.00  0.00     0.030 H 
ATOM     32  H9  non d ame      -8.180   9.245  68.549  0.00  0.00     0.030 H 
ENDBRANCH  13  29
ENDBRANCH  10  13
ENDBRANCH   7   9
BRANCH   7  33
ATOM     33  C11 non d ame     -11.977   9.810  71.514  0.00  0.00    -0.033 C 
ATOM     34  H12 non d ame     -12.054  10.410  72.421  0.00  0.00     0.042 H 
BRANCH  33  35
ATOM     35  C12 non d ame     -13.283   8.964  71.398  0.00  0.00    -0.071 C 
ATOM     36  H13 non d ame     -13.486   8.477  72.351  0.00  0.00     0.028 H 
ATOM     37  H14 non d ame     -14.117   9.617  71.139  0.00  0.00     0.028 H 
ATOM     38  H15 non d ame     -13.159   8.210  70.622  0.00  0.00     0.028 H 
ENDBRANCH  33  35
BRANCH  33  39
ATOM     39  C13 non d ame     -10.718   8.895  71.644  0.00  0.00    -0.071 C 
ATOM     40  H16 non d ame      -9.878   9.482  72.014  0.00  0.00     0.028 H 
ATOM     41  H17 non d ame     -10.929   8.083  72.341  0.00  0.00     0.028 H 
ATOM     42  H18 non d ame     -10.469   8.480  70.668  0.00  0.00     0.028 H 
ENDBRANCH  33  39
ENDBRANCH   7  33
ENDBRANCH   4   7
ENDBRANCH   1   3
BRANCH   1  43
ATOM     43  C15 non d ame     -11.563  15.742  69.484  0.00  0.00     0.240 C 
ATOM     44  O5  non d ame     -11.559  16.901  69.751  0.00  0.00    -0.271 OA
ATOM     45  N6  non d ame     -11.025  15.281  68.173  0.00  0.00    -0.355 N 
ATOM     46  H46 non d ame     -11.019  14.299  67.937  0.00  0.00     0.162 HD
BRANCH  45  47
ATOM     47  C20 non d ame     -10.498  16.271  67.208  0.00  0.00     0.013 C 
ATOM     48  H30 non d ame     -11.181  17.120  67.193  0.00  0.00     0.072 H 
BRANCH  47  49
ATOM     49  C21 non d ame     -10.425  15.642  65.835  0.00  0.00    -0.038 C 
ATOM     50  H31 non d ame     -10.857  16.374  65.152  0.00  0.00     0.036 H 
ATOM     51  H32 non d ame      -9.389  15.325  65.712  0.00  0.00     0.036 H 
BRANCH  49  52
ATOM     52  C22 non d ame     -11.288  14.367  65.714  0.00  0.00     0.018 C 
ATOM     53  H33 non d ame     -10.587  13.532  65.740  0.00  0.00     0.048 H 
ATOM     54  H34 non d ame     -12.058  14.457  66.481  0.00  0.00     0.048 H 
BRANCH  52  55
ATOM     55  C23 non d ame     -12.043  14.250  64.360  0.00  0.00     0.259 C 
ATOM     56  O7  non d ame     -12.685  15.160  63.947  0.00  0.00    -0.265 OA
BRANCH  55  57
ATOM     57  O8  non d ame     -11.970  13.035  63.624  0.00  0.00    -0.317 OA
BRANCH  57  58
ATOM     58  C29 non d ame     -11.856  11.865  64.439  0.00  0.00     0.052 C 
ATOM     59  H47 non d ame     -11.775  12.225  65.464  0.00  0.00     0.082 H 
ATOM     60  H48 non d ame     -12.690  11.224  64.152  0.00  0.00     0.082 H 
BRANCH  58  61
ATOM     61  C35 non d ame     -10.533  11.147  64.065  0.00  0.00    -0.034 A 
ATOM     62  C30 non d ame     -10.057  10.106  64.856  0.00  0.00    -0.075 A 
ATOM     63  C31 non d ame      -8.868   9.461  64.520  0.00  0.00    -0.082 A 
ATOM     64  H49 non d ame     -10.615   9.796  65.738  0.00  0.00     0.084 H 
ATOM     65  C32 non d ame      -8.153   9.861  63.388  0.00  0.00    -0.083 A 
ATOM     66  H50 non d ame      -8.499   8.644  65.140  0.00  0.00     0.083 H 
ATOM     67  C33 non d ame      -8.629  10.903  62.603  0.00  0.00    -0.082 A 
ATOM     68  H51 non d ame      -7.222   9.362  63.118  0.00  0.00     0.083 H 
ATOM     69  C34 non d ame      -9.819  11.549  62.935  0.00  0.00    -0.075 A 
ATOM     70  H52 non d ame      -8.067  11.215  61.722  0.00  0.00     0.083 H 
ATOM     71  H53 non d ame     -10.187  12.366  62.312  0.00  0.00     0.084 H 
ENDBRANCH  58  61
ENDBRANCH  57  58
ENDBRANCH  55  57
ENDBRANCH  52  55
ENDBRANCH  49  52
ENDBRANCH  47  49
BRANCH  47  72
ATOM     72  C24 non d ame      -9.103  16.718  67.639  0.00  0.00    -0.039 C 
ATOM     73  H35 non d ame      -8.948  16.279  68.624  0.00  0.00     0.036 H 
ATOM     74  H36 non d ame      -8.444  16.450  66.813  0.00  0.00     0.036 H 
BRANCH  72  75
ATOM     75  C25 non d ame      -9.018  18.309  67.812  0.00  0.00    -0.001 C 
ATOM     76  C26 non d ame     -10.443  18.999  67.366  0.00  0.00    -0.035 C 
ATOM     77  C27 non d ame     -10.190  19.990  66.478  0.00  0.00     0.085 C 
ATOM     78  H38 non d ame     -11.037  18.288  66.791  0.00  0.00     0.036 H 
ATOM     79  H39 non d ame     -10.887  19.522  68.213  0.00  0.00     0.036 H 
ATOM     80  N5  non d ame      -8.758  19.826  66.030  0.00  0.00    -0.049 N 
ATOM     81  H40 non d ame     -10.851  19.800  65.632  0.00  0.00     0.075 H 
ATOM     82  H41 non d ame     -10.280  20.917  67.044  0.00  0.00     0.075 H 
ATOM     83  C28 non d ame      -8.076  18.809  67.083  0.00  0.00     0.193 C 
ATOM     84  H42 non d ame      -8.790  19.378  65.126  0.00  0.00     0.280 HD
ATOM     85  H43 non d ame      -8.321  20.731  66.129  0.00  0.00     0.280 HD
ATOM     86  H44 non d ame      -7.403  19.181  67.856  0.00  0.00     0.129 H 
ATOM     87  H37 non d ame      -8.609  18.598  68.780  0.00  0.00     0.046 H 
BRANCH  83  88
ATOM     88  O6  non d ame      -7.340  17.801  66.388  0.00  0.00    -0.369 OA
ATOM     89  H45 non d ame      -6.611  17.502  66.936  0.00  0.00     0.212 HD
ENDBRANCH  83  88
ENDBRANCH  72  75
ENDBRANCH  47  72
ENDBRANCH  45  47
ENDBRANCH   1  43
BRANCH   1  90
ATOM     90  C16 non d ame     -11.593  15.043  71.900  0.00  0.00    -0.035 C 
ATOM     91  H21 non d ame     -11.401  14.078  72.371  0.00  0.00     0.037 H 
ATOM     92  H22 non d ame     -10.774  15.743  71.739  0.00  0.00     0.037 H 
BRANCH  90  93
ATOM     93  C17 non d ame     -12.631  15.777  72.806  0.00  0.00    -0.059 C 
ATOM     94  H23 non d ame     -12.438  16.847  72.730  0.00  0.00     0.038 H 
BRANCH  93  95
ATOM     95  C18 non d ame     -14.101  15.523  72.344  0.00  0.00    -0.073 C 
ATOM     96  H24 non d ame     -14.255  15.966  71.360  0.00  0.00     0.028 H 
ATOM     97  H25 non d ame     -14.285  14.450  72.291  0.00  0.00     0.028 H 
ATOM     98  H26 non d ame     -14.790  15.974  73.058  0.00  0.00     0.028 H 
ENDBRANCH  93  95
BRANCH  93  99
ATOM     99  C19 non d ame     -12.446  15.386  74.275  0.00  0.00    -0.073 C 
ATOM    100  H27 non d ame     -13.213  14.665  74.558  0.00  0.00     0.028 H 
ATOM    101  H28 non d ame     -11.460  14.942  74.411  0.00  0.00     0.028 H 
ATOM    102  H29 non d ame     -12.534  16.274  74.900  0.00  0.00     0.028 H 
ENDBRANCH  93  99
ENDBRANCH  90  93
ENDBRANCH   1  90
TORSDOF 26
ENDMDL
MODEL 2
REMARK VINA RESULT:      -7.0      3.629      7.537
REMARK  26 active torsions:
REMARK  status: ('A' for Active; 'I' for Inactive)
REMARK    1  A    between atoms: C2_2  and  C3_3 
REMARK    2  A    between atoms: C4_6  and  C5_7 
REMARK       I    between atoms: C5_7  and  N2_9 
REMARK    3  A    between atoms: N2_9  and  C6_10 
REMARK    4  A    between atoms: C6_10  and  C7_11 
REMARK    5  A    between atoms: C6_10  and  C8_13 
REMARK       I    between atoms: C7_11  and  N3_14 
REMARK    6  A    between atoms: N3_14  and  C9_15 
REMARK    7  A    between atoms: C9_15  and  C10_16 
REMARK    8  A    between atoms: C9_15  and  C11_18 
REMARK       I    between atoms: C10_16  and  N4_21 
REMARK    9  A    between atoms: C11_18  and  C12_19 
REMARK   10  A    between atoms: C11_18  and  C13_20 
REMARK   11  A    between atoms: N4_21  and  C14_22 
REMARK   12  A    between atoms: C14_22  and  C15_23 
REMARK   13  A    between atoms: C14_22  and  C16_25 
REMARK       I    between atoms: C15_23  and  N6_40 
REMARK   14  A    between atoms: C16_25  and  C17_26 
REMARK   15  A    between atoms: C17_26  and  C18_27 
REMARK   16  A    between atoms: C17_26  and  C19_28 
REMARK   17  A    between atoms: C20_29  and  C21_30 
REMARK   18  A    between atoms: C20_29  and  C24_33 
REMARK   19  A    between atoms: C20_29  and  N6_40 
REMARK   20  A    between atoms: C21_30  and  C22_31 
REMARK   21  A    between atoms: C22_31  and  C23_32 
REMARK   22  A    between atoms: C23_32  and  O8_43 
REMARK   23  A    between atoms: C24_33  and  C25_34 
REMARK   24  A    between atoms: C28_38  and  O6_39 
REMARK   25  A    between atoms: C29_42  and  O8_43 
REMARK   26  A    between atoms: C29_42  and  C35_49 
ROOT
ATOM      1  C14 non d ame      -9.964  10.200  68.743  0.00  0.00     0.089 C 
ATOM      2  H20 non d ame      -9.308  10.272  69.610  0.00  0.00     0.087 H 
ENDROOT
BRANCH   1   3
ATOM      3  N4  non d ame     -10.544   8.866  68.740  0.00  0.00    -0.346 N 
ATOM      4  C10 non d ame      -9.877   7.744  69.495  0.00  0.00     0.241 C 
ATOM      5  O4  non d ame      -8.872   7.939  70.096  0.00  0.00    -0.271 OA
ATOM      6  H19 non d ame     -11.398   8.720  68.220  0.00  0.00     0.163 HD
BRANCH   4   7
ATOM      7  C9  non d ame     -10.494   6.370  69.486  0.00  0.00     0.092 C 
ATOM      8  H11 non d ame     -11.560   6.457  69.275  0.00  0.00     0.088 H 
BRANCH   7   9
ATOM      9  N3  non d ame      -9.902   5.576  68.405  0.00  0.00    -0.346 N 
ATOM     10  C7  non d ame     -10.382   5.725  67.054  0.00  0.00     0.240 C 
ATOM     11  O3  non d ame     -11.246   6.479  66.818  0.00  0.00    -0.271 OA
ATOM     12  H10 non d ame      -9.158   4.920  68.594  0.00  0.00     0.163 HD
BRANCH  10  13
ATOM     13  C6  non d ame      -9.751   4.874  65.909  0.00  0.00     0.086 C 
ATOM     14  H6  non d ame     -10.393   4.805  65.031  0.00  0.00     0.086 H 
BRANCH  13  15
ATOM     15  N2  non d ame      -8.519   5.510  65.474  0.00  0.00    -0.343 N 
ATOM     16  C5  non d ame      -8.158   5.486  64.054  0.00  0.00     0.273 C 
ATOM     17  O2  non d ame      -8.863   4.951  63.272  0.00  0.00    -0.266 OA
ATOM     18  H5  non d ame      -7.921   5.964  66.149  0.00  0.00     0.163 HD
BRANCH  16  19
ATOM     19  C4  non d ame      -6.859   6.157  63.579  0.00  0.00     0.154 A 
ATOM     20  C1  non d ame      -6.598   7.560  63.478  0.00  0.00    -0.017 A 
ATOM     21  C2  non d ame      -5.273   7.650  62.996  0.00  0.00     0.077 A 
ATOM     22  H1  non d ame      -7.267   8.387  63.718  0.00  0.00     0.091 H 
ATOM     23  O1  non d ame      -4.833   6.434  62.843  0.00  0.00    -0.218 OA
ATOM     24  N1  non d ame      -5.741   5.546  63.177  0.00  0.00    -0.123 NA
BRANCH  21  25
ATOM     25  C3  non d ame      -4.502   8.931  62.711  0.00  0.00    -0.029 C 
ATOM     26  H2  non d ame      -4.400   9.063  61.633  0.00  0.00     0.036 H 
ATOM     27  H3  non d ame      -5.041   9.780  63.131  0.00  0.00     0.036 H 
ATOM     28  H4  non d ame      -3.513   8.870  63.165  0.00  0.00     0.036 H 
ENDBRANCH  21  25
ENDBRANCH  16  19
ENDBRANCH  13  15
BRANCH  13  29
ATOM     29  C8  non d ame      -9.463   3.483  66.413  0.00  0.00    -0.049 C 
ATOM     30  H7  non d ame      -8.421   3.232  66.213  0.00  0.00     0.030 H 
ATOM     31  H8  non d ame      -9.647   3.440  67.487  0.00  0.00     0.030 H 
ATOM     32  H9  non d ame     -10.111   2.770  65.904  0.00  0.00     0.030 H 
ENDBRANCH  13  29
ENDBRANCH  10  13
ENDBRANCH   7   9
BRANCH   7  33
ATOM     33  C11 non d ame     -10.222   5.670  70.850  0.00  0.00    -0.033 C 
ATOM     34  H12 non d ame      -9.329   6.124  71.280  0.00  0.00     0.042 H 
BRANCH  33  35
ATOM     35  C12 non d ame     -11.395   5.903  71.852  0.00  0.00    -0.071 C 
ATOM     36  H13 non d ame     -11.721   4.946  72.258  0.00  0.00     0.028 H 
ATOM     37  H14 non d ame     -11.057   6.546  72.664  0.00  0.00     0.028 H 
ATOM     38  H15 non d ame     -12.226   6.381  71.333  0.00  0.00     0.028 H 
ENDBRANCH  33  35
BRANCH  33  39
ATOM     39  C13 non d ame      -9.942   4.146  70.650  0.00  0.00    -0.071 C 
ATOM     40  H16 non d ame      -8.930   4.009  70.272  0.00  0.00     0.028 H 
ATOM     41  H17 non d ame     -10.049   3.628  71.603  0.00  0.00     0.028 H 
ATOM     42  H18 non d ame     -10.655   3.738  69.933  0.00  0.00     0.028 H 
ENDBRANCH  33  39
ENDBRANCH   7  33
ENDBRANCH   4   7
ENDBRANCH   1   3
BRANCH   1  43
ATOM     43  C15 non d ame     -11.118  11.242  68.790  0.00  0.00     0.240 C 
ATOM     44  O5  non d ame     -12.148  11.009  68.242  0.00  0.00    -0.271 OA
ATOM     45  N6  non d ame     -10.945  12.526  69.527  0.00  0.00    -0.355 N 
ATOM     46  H46 non d ame     -10.077  12.733  70.000  0.00  0.00     0.162 HD
BRANCH  45  47
ATOM     47  C20 non d ame     -12.053  13.505  69.564  0.00  0.00     0.013 C 
ATOM     48  H30 non d ame     -12.864  13.116  68.949  0.00  0.00     0.072 H 
BRANCH  47  49
ATOM     49  C21 non d ame     -11.571  14.826  69.007  0.00  0.00    -0.038 C 
ATOM     50  H31 non d ame     -12.145  15.593  69.530  0.00  0.00     0.036 H 
ATOM     51  H32 non d ame     -10.484  14.803  69.094  0.00  0.00     0.036 H 
BRANCH  49  52
ATOM     52  C22 non d ame     -11.885  14.994  67.505  0.00  0.00     0.018 C 
ATOM     53  H33 non d ame     -12.673  14.274  67.285  0.00  0.00     0.048 H 
ATOM     54  H34 non d ame     -12.063  16.059  67.357  0.00  0.00     0.048 H 
BRANCH  52  55
ATOM     55  C23 non d ame     -10.697  14.625  66.573  0.00  0.00     0.259 C 
ATOM     56  O7  non d ame     -10.250  13.524  66.575  0.00  0.00    -0.265 OA
BRANCH  55  57
ATOM     57  O8  non d ame     -10.138  15.622  65.726  0.00  0.00    -0.317 OA
BRANCH  57  58
ATOM     58  C29 non d ame      -8.965  16.246  66.256  0.00  0.00     0.052 C 
ATOM     59  H47 non d ame      -8.614  15.589  67.051  0.00  0.00     0.082 H 
ATOM     60  H48 non d ame      -8.327  16.450  65.396  0.00  0.00     0.082 H 
BRANCH  58  61
ATOM     61  C35 non d ame      -9.386  17.600  66.886  0.00  0.00    -0.034 A 
ATOM     62  C30 non d ame      -8.873  17.982  68.121  0.00  0.00    -0.075 A 
ATOM     63  C31 non d ame      -9.251  19.198  68.688  0.00  0.00    -0.082 A 
ATOM     64  H49 non d ame      -8.174  17.330  68.644  0.00  0.00     0.084 H 
ATOM     65  C32 non d ame     -10.148  20.033  68.016  0.00  0.00    -0.083 A 
ATOM     66  H50 non d ame      -8.845  19.496  69.655  0.00  0.00     0.083 H 
ATOM     67  C33 non d ame     -10.661  19.645  66.785  0.00  0.00    -0.082 A 
ATOM     68  H51 non d ame     -10.449  20.985  68.452  0.00  0.00     0.083 H 
ATOM     69  C34 non d ame     -10.283  18.432  66.214  0.00  0.00    -0.075 A 
ATOM     70  H52 non d ame     -11.363  20.297  66.264  0.00  0.00     0.083 H 
ATOM     71  H53 non d ame     -10.690  18.135  65.246  0.00  0.00     0.084 H 
ENDBRANCH  58  61
ENDBRANCH  57  58
ENDBRANCH  55  57
ENDBRANCH  52  55
ENDBRANCH  49  52
ENDBRANCH  47  49
BRANCH  47  72
ATOM     72  C24 non d ame     -12.523  13.699  71.003  0.00  0.00    -0.039 C 
ATOM     73  H35 non d ame     -13.466  13.157  71.076  0.00  0.00     0.036 H 
ATOM     74  H36 non d ame     -11.677  13.407  71.627  0.00  0.00     0.036 H 
BRANCH  72  75
ATOM     75  C25 non d ame     -12.836  15.238  71.322  0.00  0.00    -0.001 C 
ATOM     76  C26 non d ame     -11.737  15.822  72.397  0.00  0.00    -0.035 C 
ATOM     77  C27 non d ame     -12.399  16.414  73.420  0.00  0.00     0.085 C 
ATOM     78  H38 non d ame     -11.210  14.998  72.878  0.00  0.00     0.036 H 
ATOM     79  H39 non d ame     -11.174  16.641  71.949  0.00  0.00     0.036 H 
ATOM     80  N5  non d ame     -13.847  16.002  73.306  0.00  0.00    -0.049 N 
ATOM     81  H40 non d ame     -11.977  15.984  74.328  0.00  0.00     0.075 H 
ATOM     82  H41 non d ame     -12.320  17.486  73.236  0.00  0.00     0.075 H 
ATOM     83  C28 non d ame     -14.017  15.379  71.826  0.00  0.00     0.193 C 
ATOM     84  H42 non d ame     -13.989  15.266  73.983  0.00  0.00     0.280 HD
ATOM     85  H43 non d ame     -14.391  16.851  73.362  0.00  0.00     0.280 HD
ATOM     86  H44 non d ame     -14.502  15.953  71.037  0.00  0.00     0.129 H 
ATOM     87  H37 non d ame     -13.003  15.821  70.417  0.00  0.00     0.046 H 
BRANCH  83  88
ATOM     88  O6  non d ame     -14.727  14.142  71.892  0.00  0.00    -0.369 OA
ATOM     89  H45 non d ame     -15.369  14.179  72.605  0.00  0.00     0.212 HD
ENDBRANCH  83  88
ENDBRANCH  72  75
ENDBRANCH  47  72
ENDBRANCH  45  47
ENDBRANCH   1  43
BRANCH   1  90
ATOM     90  C16 non d ame      -9.154  10.393  67.469  0.00  0.00    -0.035 C 
ATOM     91  H21 non d ame      -9.773  11.020  66.827  0.00  0.00     0.037 H 
ATOM     92  H22 non d ame      -8.178  10.747  67.799  0.00  0.00     0.037 H 
BRANCH  90  93
ATOM     93  C17 non d ame      -8.901   9.069  66.682  0.00  0.00    -0.059 C 
ATOM     94  H23 non d ame      -9.492   8.285  67.155  0.00  0.00     0.038 H 
BRANCH  93  95
ATOM     95  C18 non d ame      -9.354   9.173  65.191  0.00  0.00    -0.073 C 
ATOM     96  H24 non d ame      -8.777   8.473  64.586  0.00  0.00     0.028 H 
ATOM     97  H25 non d ame     -10.414   8.928  65.115  0.00  0.00     0.028 H 
ATOM     98  H26 non d ame      -9.190  10.188  64.830  0.00  0.00     0.028 H 
ENDBRANCH  93  95
BRANCH  93  99
ATOM     99  C19 non d ame      -7.432   8.649  66.777  0.00  0.00    -0.073 C 
ATOM    100  H27 non d ame      -6.902   9.332  67.441  0.00  0.00     0.028 H 
ATOM    101  H28 non d ame      -7.368   7.635  67.172  0.00  0.00     0.028 H 
ATOM    102  H29 non d ame      -6.980   8.682  65.786  0.00  0.00     0.028 H 
ENDBRANCH  93  99
ENDBRANCH  90  93
ENDBRANCH   1  90
TORSDOF 26
ENDMDL
MODEL 3
REMARK VINA RESULT:      -6.6      2.338      7.849
REMARK  26 active torsions:
REMARK  status: ('A' for Active; 'I' for Inactive)
REMARK    1  A    between atoms: C2_2  and  C3_3 
REMARK    2  A    between atoms: C4_6  and  C5_7 
REMARK       I    between atoms: C5_7  and  N2_9 
REMARK    3  A    between atoms: N2_9  and  C6_10 
REMARK    4  A    between atoms: C6_10  and  C7_11 
REMARK    5  A    between atoms: C6_10  and  C8_13 
REMARK       I    between atoms: C7_11  and  N3_14 
REMARK    6  A    between atoms: N3_14  and  C9_15 
REMARK    7  A    between atoms: C9_15  and  C10_16 
REMARK    8  A    between atoms: C9_15  and  C11_18 
REMARK       I    between atoms: C10_16  and  N4_21 
REMARK    9  A    between atoms: C11_18  and  C12_19 
REMARK   10  A    between atoms: C11_18  and  C13_20 
REMARK   11  A    between atoms: N4_21  and  C14_22 
REMARK   12  A    between atoms: C14_22  and  C15_23 
REMARK   13  A    between atoms: C14_22  and  C16_25 
REMARK       I    between atoms: C15_23  and  N6_40 
REMARK   14  A    between atoms: C16_25  and  C17_26 
REMARK   15  A    between atoms: C17_26  and  C18_27 
REMARK   16  A    between atoms: C17_26  and  C19_28 
REMARK   17  A    between atoms: C20_29  and  C21_30 
REMARK   18  A    between atoms: C20_29  and  C24_33 
REMARK   19  A    between atoms: C20_29  and  N6_40 
REMARK   20  A    between atoms: C21_30  and  C22_31 
REMARK   21  A    between atoms: C22_31  and  C23_32 
REMARK   22  A    between atoms: C23_32  and  O8_43 
REMARK   23  A    between atoms: C24_33  and  C25_34 
REMARK   24  A    between atoms: C28_38  and  O6_39 
REMARK   25  A    between atoms: C29_42  and  O8_43 
REMARK   26  A    between atoms: C29_42  and  C35_49 
ROOT
ATOM      1  C14 non d ame      -7.016  12.348  68.104  0.00  0.00     0.089 C 
ATOM      2  H20 non d ame      -6.229  12.139  67.379  0.00  0.00     0.087 H 
ENDROOT
BRANCH   1   3
ATOM      3  N4  non d ame      -7.262  13.782  68.083  0.00  0.00    -0.346 N 
ATOM      4  C10 non d ame      -6.167  14.737  67.675  0.00  0.00     0.241 C 
ATOM      5  O4  non d ame      -5.096  14.326  67.370  0.00  0.00    -0.271 OA
ATOM      6  H19 non d ame      -8.180  14.111  68.348  0.00  0.00     0.163 HD
BRANCH   4   7
ATOM      7  C9  non d ame      -6.440  16.217  67.654  0.00  0.00     0.092 C 
ATOM      8  H11 non d ame      -6.076  16.636  66.716  0.00  0.00     0.088 H 
BRANCH   7   9
ATOM      9  N3  non d ame      -7.888  16.449  67.696  0.00  0.00    -0.346 N 
ATOM     10  C7  non d ame      -8.550  17.084  66.584  0.00  0.00     0.240 C 
ATOM     11  O3  non d ame      -7.933  17.418  65.647  0.00  0.00    -0.271 OA
ATOM     12  H10 non d ame      -8.432  16.168  68.499  0.00  0.00     0.163 HD
BRANCH  10  13
ATOM     13  C6  non d ame     -10.089  17.330  66.637  0.00  0.00     0.086 C 
ATOM     14  H6  non d ame     -10.649  16.642  66.003  0.00  0.00     0.086 H 
BRANCH  13  15
ATOM     15  N2  non d ame     -10.554  17.114  67.997  0.00  0.00    -0.343 N 
ATOM     16  C5  non d ame     -11.323  15.908  68.313  0.00  0.00     0.273 C 
ATOM     17  O2  non d ame     -11.565  15.120  67.466  0.00  0.00    -0.266 OA
ATOM     18  H5  non d ame     -10.346  17.793  68.714  0.00  0.00     0.163 HD
BRANCH  16  19
ATOM     19  C4  non d ame     -11.820  15.666  69.747  0.00  0.00     0.154 A 
ATOM     20  C1  non d ame     -12.550  14.534  70.229  0.00  0.00    -0.017 A 
ATOM     21  C2  non d ame     -12.761  14.794  71.602  0.00  0.00     0.077 A 
ATOM     22  H1  non d ame     -12.878  13.657  69.669  0.00  0.00     0.091 H 
ATOM     23  O1  non d ame     -12.210  15.943  71.867  0.00  0.00    -0.218 OA
ATOM     24  N1  non d ame     -11.655  16.471  70.800  0.00  0.00    -0.123 NA
BRANCH  21  25
ATOM     25  C3  non d ame     -13.494  13.895  72.587  0.00  0.00    -0.029 C 
ATOM     26  H2  non d ame     -14.523  14.239  72.699  0.00  0.00     0.036 H 
ATOM     27  H3  non d ame     -13.493  12.871  72.215  0.00  0.00     0.036 H 
ATOM     28  H4  non d ame     -12.993  13.930  73.555  0.00  0.00     0.036 H 
ENDBRANCH  21  25
ENDBRANCH  16  19
ENDBRANCH  13  15
BRANCH  13  29
ATOM     29  C8  non d ame     -10.391  18.743  66.207  0.00  0.00    -0.049 C 
ATOM     30  H7  non d ame     -10.573  18.766  65.133  0.00  0.00     0.030 H 
ATOM     31  H8  non d ame     -11.277  19.102  66.733  0.00  0.00     0.030 H 
ATOM     32  H9  non d ame      -9.543  19.384  66.445  0.00  0.00     0.030 H 
ENDBRANCH  13  29
ENDBRANCH  10  13
ENDBRANCH   7   9
BRANCH   7  33
ATOM     33  C11 non d ame      -5.774  16.886  68.892  0.00  0.00    -0.033 C 
ATOM     34  H12 non d ame      -4.717  17.022  68.662  0.00  0.00     0.042 H 
BRANCH  33  35
ATOM     35  C12 non d ame      -6.379  18.297  69.170  0.00  0.00    -0.071 C 
ATOM     36  H13 non d ame      -7.070  18.560  68.369  0.00  0.00     0.028 H 
ATOM     37  H14 non d ame      -6.913  18.282  70.120  0.00  0.00     0.028 H 
ATOM     38  H15 non d ame      -5.577  19.033  69.216  0.00  0.00     0.028 H 
ENDBRANCH  33  35
BRANCH  33  39
ATOM     39  C13 non d ame      -5.881  15.965  70.149  0.00  0.00    -0.071 C 
ATOM     40  H16 non d ame      -6.514  16.443  70.896  0.00  0.00     0.028 H 
ATOM     41  H17 non d ame      -6.314  15.007  69.863  0.00  0.00     0.028 H 
ATOM     42  H18 non d ame      -4.887  15.804  70.566  0.00  0.00     0.028 H 
ENDBRANCH  33  39
ENDBRANCH   7  33
ENDBRANCH   4   7
ENDBRANCH   1   3
BRANCH   1  43
ATOM     43  C15 non d ame      -8.343  11.613  67.759  0.00  0.00     0.240 C 
ATOM     44  O5  non d ame      -9.349  11.918  68.316  0.00  0.00    -0.271 OA
ATOM     45  N6  non d ame      -8.363  10.537  66.729  0.00  0.00    -0.355 N 
ATOM     46  H46 non d ame      -7.516  10.272  66.246  0.00  0.00     0.162 HD
BRANCH  45  47
ATOM     47  C20 non d ame      -9.633   9.849  66.412  0.00  0.00     0.013 C 
ATOM     48  H30 non d ame     -10.396  10.223  67.094  0.00  0.00     0.072 H 
BRANCH  47  49
ATOM     49  C21 non d ame      -9.457   8.359  66.602  0.00  0.00    -0.038 C 
ATOM     50  H31 non d ame      -9.190   7.966  65.621  0.00  0.00     0.036 H 
ATOM     51  H32 non d ame      -8.767   8.250  67.440  0.00  0.00     0.036 H 
BRANCH  49  52
ATOM     52  C22 non d ame     -10.763   7.649  67.018  0.00  0.00     0.018 C 
ATOM     53  H33 non d ame     -11.342   8.392  67.566  0.00  0.00     0.048 H 
ATOM     54  H34 non d ame     -11.164   7.210  66.103  0.00  0.00     0.048 H 
BRANCH  52  55
ATOM     55  C23 non d ame     -10.546   6.465  68.002  0.00  0.00     0.259 C 
ATOM     56  O7  non d ame      -9.755   5.614  67.755  0.00  0.00    -0.265 OA
BRANCH  55  57
ATOM     57  O8  non d ame     -11.314   6.402  69.197  0.00  0.00    -0.317 OA
BRANCH  57  58
ATOM     58  C29 non d ame     -10.668   6.977  70.336  0.00  0.00     0.052 C 
ATOM     59  H47 non d ame     -10.742   6.229  71.126  0.00  0.00     0.082 H 
ATOM     60  H48 non d ame      -9.689   7.305  69.986  0.00  0.00     0.082 H 
BRANCH  58  61
ATOM     61  C35 non d ame     -11.480   8.227  70.767  0.00  0.00    -0.034 A 
ATOM     62  C30 non d ame     -11.176   9.473  70.229  0.00  0.00    -0.075 A 
ATOM     63  C31 non d ame     -11.905  10.597  70.615  0.00  0.00    -0.082 A 
ATOM     64  H49 non d ame     -10.368   9.570  69.505  0.00  0.00     0.084 H 
ATOM     65  C32 non d ame     -12.940  10.471  71.546  0.00  0.00    -0.083 A 
ATOM     66  H50 non d ame     -11.666  11.572  70.191  0.00  0.00     0.083 H 
ATOM     67  C33 non d ame     -13.238   9.226  72.083  0.00  0.00    -0.082 A 
ATOM     68  H51 non d ame     -13.515  11.345  71.854  0.00  0.00     0.083 H 
ATOM     69  C34 non d ame     -12.513   8.100  71.697  0.00  0.00    -0.075 A 
ATOM     70  H52 non d ame     -14.044   9.132  72.810  0.00  0.00     0.083 H 
ATOM     71  H53 non d ame     -12.754   7.125  72.123  0.00  0.00     0.084 H 
ENDBRANCH  58  61
ENDBRANCH  57  58
ENDBRANCH  55  57
ENDBRANCH  52  55
ENDBRANCH  49  52
ENDBRANCH  47  49
BRANCH  47  72
ATOM     72  C24 non d ame     -10.028  10.135  64.965  0.00  0.00    -0.039 C 
ATOM     73  H35 non d ame      -9.181   9.809  64.363  0.00  0.00     0.036 H 
ATOM     74  H36 non d ame     -11.004   9.667  64.832  0.00  0.00     0.036 H 
BRANCH  72  75
ATOM     75  C25 non d ame     -10.218  11.704  64.702  0.00  0.00    -0.001 C 
ATOM     76  C26 non d ame     -11.558  12.246  65.486  0.00  0.00    -0.035 C 
ATOM     77  C27 non d ame     -12.333  12.925  64.608  0.00  0.00     0.085 C 
ATOM     78  H38 non d ame     -12.185  11.404  65.780  0.00  0.00     0.036 H 
ATOM     79  H39 non d ame     -11.282  13.002  66.221  0.00  0.00     0.036 H 
ATOM     80  N5  non d ame     -11.808  12.620  63.227  0.00  0.00    -0.049 N 
ATOM     81  H40 non d ame     -13.332  12.500  64.711  0.00  0.00     0.075 H 
ATOM     82  H41 non d ame     -12.164  13.980  64.826  0.00  0.00     0.075 H 
ATOM     83  C28 non d ame     -10.353  11.954  63.442  0.00  0.00     0.193 C 
ATOM     84  H42 non d ame     -12.425  11.923  62.833  0.00  0.00     0.280 HD
ATOM     85  H43 non d ame     -11.689  13.508  62.762  0.00  0.00     0.280 HD
ATOM     86  H44 non d ame      -9.447  12.531  63.256  0.00  0.00     0.129 H 
ATOM     87  H37 non d ame      -9.295  12.263  64.854  0.00  0.00     0.046 H 
BRANCH  83  88
ATOM     88  O6  non d ame     -10.227  10.777  62.643  0.00  0.00    -0.369 OA
ATOM     89  H45 non d ame     -10.278  10.001  63.205  0.00  0.00     0.212 HD
ENDBRANCH  83  88
ENDBRANCH  72  75
ENDBRANCH  47  72
ENDBRANCH  45  47
ENDBRANCH   1  43
BRANCH   1  90
ATOM     90  C16 non d ame      -6.554  11.943  69.496  0.00  0.00    -0.035 C 
ATOM     91  H21 non d ame      -6.555  12.865  70.079  0.00  0.00     0.037 H 
ATOM     92  H22 non d ame      -7.202  11.116  69.785  0.00  0.00     0.037 H 
BRANCH  90  93
ATOM     93  C17 non d ame      -5.092  11.397  69.536  0.00  0.00    -0.059 C 
ATOM     94  H23 non d ame      -5.080  10.534  70.202  0.00  0.00     0.038 H 
BRANCH  93  95
ATOM     95  C18 non d ame      -4.600  10.922  68.132  0.00  0.00    -0.073 C 
ATOM     96  H24 non d ame      -5.297  10.184  67.733  0.00  0.00     0.028 H 
ATOM     97  H25 non d ame      -4.552  11.776  67.456  0.00  0.00     0.028 H 
ATOM     98  H26 non d ame      -3.610  10.476  68.225  0.00  0.00     0.028 H 
ENDBRANCH  93  95
BRANCH  93  99
ATOM     99  C19 non d ame      -4.136  12.437  70.126  0.00  0.00    -0.073 C 
ATOM    100  H27 non d ame      -4.623  12.947  70.957  0.00  0.00     0.028 H 
ATOM    101  H28 non d ame      -3.233  11.941  70.481  0.00  0.00     0.028 H 
ATOM    102  H29 non d ame      -3.873  13.165  69.358  0.00  0.00     0.028 H 
ENDBRANCH  93  99
ENDBRANCH  90  93
ENDBRANCH   1  90
TORSDOF 26
ENDMDL
MODEL 4
REMARK VINA RESULT:      -6.4      2.918      5.979
REMARK  26 active torsions:
REMARK  status: ('A' for Active; 'I' for Inactive)
REMARK    1  A    between atoms: C2_2  and  C3_3 
REMARK    2  A    between atoms: C4_6  and  C5_7 
REMARK       I    between atoms: C5_7  and  N2_9 
REMARK    3  A    between atoms: N2_9  and  C6_10 
REMARK    4  A    between atoms: C6_10  and  C7_11 
REMARK    5  A    between atoms: C6_10  and  C8_13 
REMARK       I    between atoms: C7_11  and  N3_14 
REMARK    6  A    between atoms: N3_14  and  C9_15 
REMARK    7  A    between atoms: C9_15  and  C10_16 
REMARK    8  A    between atoms: C9_15  and  C11_18 
REMARK       I    between atoms: C10_16  and  N4_21 
REMARK    9  A    between atoms: C11_18  and  C12_19 
REMARK   10  A    between atoms: C11_18  and  C13_20 
REMARK   11  A    between atoms: N4_21  and  C14_22 
REMARK   12  A    between atoms: C14_22  and  C15_23 
REMARK   13  A    between atoms: C14_22  and  C16_25 
REMARK       I    between atoms: C15_23  and  N6_40 
REMARK   14  A    between atoms: C16_25  and  C17_26 
REMARK   15  A    between atoms: C17_26  and  C18_27 
REMARK   16  A    between atoms: C17_26  and  C19_28 
REMARK   17  A    between atoms: C20_29  and  C21_30 
REMARK   18  A    between atoms: C20_29  and  C24_33 
REMARK   19  A    between atoms: C20_29  and  N6_40 
REMARK   20  A    between atoms: C21_30  and  C22_31 
REMARK   21  A    between atoms: C22_31  and  C23_32 
REMARK   22  A    between atoms: C23_32  and  O8_43 
REMARK   23  A    between atoms: C24_33  and  C25_34 
REMARK   24  A    between atoms: C28_38  and  O6_39 
REMARK   25  A    between atoms: C29_42  and  O8_43 
REMARK   26  A    between atoms: C29_42  and  C35_49 
ROOT
ATOM      1  C14 non d ame     -12.228  14.003  69.611  0.00  0.00     0.089 C 
ATOM      2  H20 non d ame     -13.208  13.622  69.327  0.00  0.00     0.087 H 
ENDROOT
BRANCH   1   3
ATOM      3  N4  non d ame     -11.390  12.859  69.939  0.00  0.00    -0.346 N 
ATOM      4  C10 non d ame     -11.519  11.574  69.161  0.00  0.00     0.241 C 
ATOM      5  O4  non d ame     -12.307  11.483  68.278  0.00  0.00    -0.271 OA
ATOM      6  H19 non d ame     -10.728  12.956  70.696  0.00  0.00     0.163 HD
BRANCH   4   7
ATOM      7  C9  non d ame     -10.641  10.401  69.510  0.00  0.00     0.092 C 
ATOM      8  H11 non d ame     -10.031  10.655  70.377  0.00  0.00     0.088 H 
BRANCH   7   9
ATOM      9  N3  non d ame     -11.477   9.259  69.889  0.00  0.00    -0.346 N 
ATOM     10  C7  non d ame     -12.300   9.327  71.071  0.00  0.00     0.240 C 
ATOM     11  O3  non d ame     -12.301  10.295  71.730  0.00  0.00    -0.271 OA
ATOM     12  H10 non d ame     -11.486   8.417  69.331  0.00  0.00     0.163 HD
BRANCH  10  13
ATOM     13  C6  non d ame     -13.186   8.107  71.470  0.00  0.00     0.086 C 
ATOM     14  H6  non d ame     -13.370   7.428  70.637  0.00  0.00     0.086 H 
BRANCH  13  15
ATOM     15  N2  non d ame     -12.493   7.336  72.489  0.00  0.00    -0.343 N 
ATOM     16  C5  non d ame     -11.532   6.306  72.084  0.00  0.00     0.273 C 
ATOM     17  O2  non d ame     -11.327   6.104  70.938  0.00  0.00    -0.266 OA
ATOM     18  H5  non d ame     -12.675   7.512  73.466  0.00  0.00     0.163 HD
BRANCH  16  19
ATOM     19  C4  non d ame     -10.790   5.484  73.150  0.00  0.00     0.154 A 
ATOM     20  C1  non d ame     -11.055   4.133  73.539  0.00  0.00    -0.017 A 
ATOM     21  C2  non d ame     -10.104   3.850  74.545  0.00  0.00     0.077 A 
ATOM     22  H1  non d ame     -11.821   3.459  73.152  0.00  0.00     0.091 H 
ATOM     23  O1  non d ame      -9.381   4.921  74.706  0.00  0.00    -0.218 OA
ATOM     24  N1  non d ame      -9.764   5.888  73.904  0.00  0.00    -0.123 NA
BRANCH  21  25
ATOM     25  C3  non d ame      -9.952   2.537  75.299  0.00  0.00    -0.029 C 
ATOM     26  H2  non d ame     -10.933   2.077  75.432  0.00  0.00     0.036 H 
ATOM     27  H3  non d ame      -9.311   1.864  74.730  0.00  0.00     0.036 H 
ATOM     28  H4  non d ame      -9.504   2.726  76.275  0.00  0.00     0.036 H 
ENDBRANCH  21  25
ENDBRANCH  16  19
ENDBRANCH  13  15
BRANCH  13  29
ATOM     29  C8  non d ame     -14.509   8.594  72.003  0.00  0.00    -0.049 C 
ATOM     30  H7  non d ame     -14.385   9.590  72.429  0.00  0.00     0.030 H 
ATOM     31  H8  non d ame     -15.235   8.634  71.190  0.00  0.00     0.030 H 
ATOM     32  H9  non d ame     -14.863   7.912  72.775  0.00  0.00     0.030 H 
ENDBRANCH  13  29
ENDBRANCH  10  13
ENDBRANCH   7   9
BRANCH   7  33
ATOM     33  C11 non d ame      -9.772  10.019  68.276  0.00  0.00    -0.033 C 
ATOM     34  H12 non d ame     -10.444   9.894  67.427  0.00  0.00     0.042 H 
BRANCH  33  35
ATOM     35  C12 non d ame      -8.766  11.156  67.915  0.00  0.00    -0.071 C 
ATOM     36  H13 non d ame      -7.971  11.188  68.660  0.00  0.00     0.028 H 
ATOM     37  H14 non d ame      -8.334  10.961  66.933  0.00  0.00     0.028 H 
ATOM     38  H15 non d ame      -9.289  12.111  67.898  0.00  0.00     0.028 H 
ENDBRANCH  33  35
BRANCH  33  39
ATOM     39  C13 non d ame      -9.033   8.662  68.512  0.00  0.00    -0.071 C 
ATOM     40  H16 non d ame      -8.282   8.788  69.292  0.00  0.00     0.028 H 
ATOM     41  H17 non d ame      -9.753   7.904  68.819  0.00  0.00     0.028 H 
ATOM     42  H18 non d ame      -8.547   8.349  67.588  0.00  0.00     0.028 H 
ENDBRANCH  33  39
ENDBRANCH   7  33
ENDBRANCH   4   7
ENDBRANCH   1   3
BRANCH   1  43
ATOM     43  C15 non d ame     -11.550  14.800  68.460  0.00  0.00     0.240 C 
ATOM     44  O5  non d ame     -11.578  15.989  68.467  0.00  0.00    -0.271 OA
ATOM     45  N6  non d ame     -10.857  14.082  67.352  0.00  0.00    -0.355 N 
ATOM     46  H46 non d ame     -10.823  13.073  67.338  0.00  0.00     0.162 HD
BRANCH  45  47
ATOM     47  C20 non d ame     -10.217  14.854  66.266  0.00  0.00     0.013 C 
ATOM     48  H30 non d ame     -10.686  15.837  66.231  0.00  0.00     0.072 H 
BRANCH  47  49
ATOM     49  C21 non d ame     -10.425  14.136  64.952  0.00  0.00    -0.038 C 
ATOM     50  H31 non d ame     -11.240  14.663  64.454  0.00  0.00     0.036 H 
ATOM     51  H32 non d ame      -9.441  14.086  64.485  0.00  0.00     0.036 H 
BRANCH  49  52
ATOM     52  C22 non d ame     -10.895  12.677  65.134  0.00  0.00     0.018 C 
ATOM     53  H33 non d ame     -10.022  12.126  65.485  0.00  0.00     0.048 H 
ATOM     54  H34 non d ame     -11.791  12.730  65.753  0.00  0.00     0.048 H 
BRANCH  52  55
ATOM     55  C23 non d ame     -11.329  11.989  63.809  0.00  0.00     0.259 C 
ATOM     56  O7  non d ame     -12.279  12.378  63.212  0.00  0.00    -0.265 OA
BRANCH  55  57
ATOM     57  O8  non d ame     -10.585  10.878  63.324  0.00  0.00    -0.317 OA
BRANCH  57  58
ATOM     58  C29 non d ame      -9.319  11.227  62.757  0.00  0.00     0.052 C 
ATOM     59  H47 non d ame      -9.479  11.272  61.681  0.00  0.00     0.082 H 
ATOM     60  H48 non d ame      -8.989  12.116  63.296  0.00  0.00     0.082 H 
BRANCH  58  61
ATOM     61  C35 non d ame      -8.325  10.074  63.059  0.00  0.00    -0.034 A 
ATOM     62  C30 non d ame      -8.598   9.168  64.078  0.00  0.00    -0.075 A 
ATOM     63  C31 non d ame      -7.706   8.132  64.349  0.00  0.00    -0.082 A 
ATOM     64  H49 non d ame      -9.511   9.269  64.664  0.00  0.00     0.084 H 
ATOM     65  C32 non d ame      -6.535   8.005  63.597  0.00  0.00    -0.083 A 
ATOM     66  H50 non d ame      -7.924   7.422  65.147  0.00  0.00     0.083 H 
ATOM     67  C33 non d ame      -6.264   8.914  62.583  0.00  0.00    -0.082 A 
ATOM     68  H51 non d ame      -5.831   7.198  63.802  0.00  0.00     0.083 H 
ATOM     69  C34 non d ame      -7.155   9.950  62.307  0.00  0.00    -0.075 A 
ATOM     70  H52 non d ame      -5.348   8.814  62.000  0.00  0.00     0.083 H 
ATOM     71  H53 non d ame      -6.936  10.659  61.508  0.00  0.00     0.084 H 
ENDBRANCH  58  61
ENDBRANCH  57  58
ENDBRANCH  55  57
ENDBRANCH  52  55
ENDBRANCH  49  52
ENDBRANCH  47  49
BRANCH  47  72
ATOM     72  C24 non d ame      -8.721  14.989  66.541  0.00  0.00    -0.039 C 
ATOM     73  H35 non d ame      -8.496  14.240  67.300  0.00  0.00     0.036 H 
ATOM     74  H36 non d ame      -8.240  14.937  65.565  0.00  0.00     0.036 H 
BRANCH  72  75
ATOM     75  C25 non d ame      -8.361  16.419  67.169  0.00  0.00    -0.001 C 
ATOM     76  C26 non d ame      -7.119  17.101  66.335  0.00  0.00    -0.035 C 
ATOM     77  C27 non d ame      -6.162  17.485  67.213  0.00  0.00     0.085 C 
ATOM     78  H38 non d ame      -6.619  16.347  65.727  0.00  0.00     0.036 H 
ATOM     79  H39 non d ame      -7.442  18.039  65.883  0.00  0.00     0.036 H 
ATOM     80  N5  non d ame      -6.490  16.836  68.535  0.00  0.00    -0.049 N 
ATOM     81  H40 non d ame      -5.231  17.066  66.831  0.00  0.00     0.075 H 
ATOM     82  H41 non d ame      -6.274  18.565  67.311  0.00  0.00     0.075 H 
ATOM     83  C28 non d ame      -8.012  16.311  68.408  0.00  0.00     0.193 C 
ATOM     84  H42 non d ame      -5.880  16.035  68.620  0.00  0.00     0.280 HD
ATOM     85  H43 non d ame      -6.460  17.568  69.230  0.00  0.00     0.280 HD
ATOM     86  H44 non d ame      -8.826  16.851  68.892  0.00  0.00     0.129 H 
ATOM     87  H37 non d ame      -9.247  17.033  67.331  0.00  0.00     0.046 H 
BRANCH  83  88
ATOM     88  O6  non d ame      -8.110  14.967  68.881  0.00  0.00    -0.369 OA
ATOM     89  H45 non d ame      -7.395  14.791  69.497  0.00  0.00     0.212 HD
ENDBRANCH  83  88
ENDBRANCH  72  75
ENDBRANCH  47  72
ENDBRANCH  45  47
ENDBRANCH   1  43
BRANCH   1  90
ATOM     90  C16 non d ame     -12.358  14.891  70.839  0.00  0.00    -0.035 C 
ATOM     91  H21 non d ame     -11.337  15.057  71.185  0.00  0.00     0.037 H 
ATOM     92  H22 non d ame     -12.969  15.736  70.521  0.00  0.00     0.037 H 
BRANCH  90  93
ATOM     93  C17 non d ame     -13.120  14.216  72.023  0.00  0.00    -0.059 C 
ATOM     94  H23 non d ame     -12.892  13.150  71.997  0.00  0.00     0.038 H 
BRANCH  93  95
ATOM     95  C18 non d ame     -12.664  14.768  73.411  0.00  0.00    -0.073 C 
ATOM     96  H24 non d ame     -12.987  14.085  74.197  0.00  0.00     0.028 H 
ATOM     97  H25 non d ame     -11.578  14.853  73.429  0.00  0.00     0.028 H 
ATOM     98  H26 non d ame     -13.108  15.749  73.575  0.00  0.00     0.028 H 
ENDBRANCH  93  95
BRANCH  93  99
ATOM     99  C19 non d ame     -14.635  14.359  71.850  0.00  0.00    -0.073 C 
ATOM    100  H27 non d ame     -15.144  13.693  72.546  0.00  0.00     0.028 H 
ATOM    101  H28 non d ame     -14.928  15.389  72.052  0.00  0.00     0.028 H 
ATOM    102  H29 non d ame     -14.910  14.096  70.829  0.00  0.00     0.028 H 
ENDBRANCH  93  99
ENDBRANCH  90  93
ENDBRANCH   1  90
TORSDOF 26
ENDMDL
MODEL 5
REMARK VINA RESULT:      -6.3      2.282      7.670
REMARK  26 active torsions:
REMARK  status: ('A' for Active; 'I' for Inactive)
REMARK    1  A    between atoms: C2_2  and  C3_3 
REMARK    2  A    between atoms: C4_6  and  C5_7 
REMARK       I    between atoms: C5_7  and  N2_9 
REMARK    3  A    between atoms: N2_9  and  C6_10 
REMARK    4  A    between atoms: C6_10  and  C7_11 
REMARK    5  A    between atoms: C6_10  and  C8_13 
REMARK       I    between atoms: C7_11  and  N3_14 
REMARK    6  A    between atoms: N3_14  and  C9_15 
REMARK    7  A    between atoms: C9_15  and  C10_16 
REMARK    8  A    between atoms: C9_15  and  C11_18 
REMARK       I    between atoms: C10_16  and  N4_21 
REMARK    9  A    between atoms: C11_18  and  C12_19 
REMARK   10  A    between atoms: C11_18  and  C13_20 
REMARK   11  A    between atoms: N4_21  and  C14_22 
REMARK   12  A    between atoms: C14_22  and  C15_23 
REMARK   13  A    between atoms: C14_22  and  C16_25 
REMARK       I    between atoms: C15_23  and  N6_40 
REMARK   14  A    between atoms: C16_25  and  C17_26 
REMARK   15  A    between atoms: C17_26  and  C18_27 
REMARK   16  A    between atoms: C17_26  and  C19_28 
REMARK   17  A    between atoms: C20_29  and  C21_30 
REMARK   18  A    between atoms: C20_29  and  C24_33 
REMARK   19  A    between atoms: C20_29  and  N6_40 
REMARK   20  A    between atoms: C21_30  and  C22_31 
REMARK   21  A    between atoms: C22_31  and  C23_32 
REMARK   22  A    between atoms: C23_32  and  O8_43 
REMARK   23  A    between atoms: C24_33  and  C25_34 
REMARK   24  A    between atoms: C28_38  and  O6_39 
REMARK   25  A    between atoms: C29_42  and  O8_43 
REMARK   26  A    between atoms: C29_42  and  C35_49 
ROOT
ATOM      1  C14 non d ame     -10.025  12.428  65.566  0.00  0.00     0.089 C 
ATOM      2  H20 non d ame      -9.931  12.911  64.594  0.00  0.00     0.087 H 
ENDROOT
BRANCH   1   3
ATOM      3  N4  non d ame      -9.273  11.183  65.513  0.00  0.00    -0.346 N 
ATOM      4  C10 non d ame      -8.931  10.556  64.185  0.00  0.00     0.241 C 
ATOM      5  O4  non d ame      -9.275  11.070  63.172  0.00  0.00    -0.271 OA
ATOM      6  H19 non d ame      -8.992  10.761  66.387  0.00  0.00     0.163 HD
BRANCH   4   7
ATOM      7  C9  non d ame      -8.146   9.271  64.149  0.00  0.00     0.092 C 
ATOM      8  H11 non d ame      -7.148   9.448  64.550  0.00  0.00     0.088 H 
BRANCH   7   9
ATOM      9  N3  non d ame      -8.791   8.280  65.016  0.00  0.00    -0.346 N 
ATOM     10  C7  non d ame      -8.297   8.061  66.353  0.00  0.00     0.240 C 
ATOM     11  O3  non d ame      -7.381   8.673  66.748  0.00  0.00    -0.271 OA
ATOM     12  H10 non d ame      -9.581   7.743  64.688  0.00  0.00     0.163 HD
BRANCH  10  13
ATOM     13  C6  non d ame      -8.986   7.002  67.269  0.00  0.00     0.086 C 
ATOM     14  H6  non d ame      -8.298   6.553  67.986  0.00  0.00     0.086 H 
BRANCH  13  15
ATOM     15  N2  non d ame     -10.027   7.656  68.044  0.00  0.00    -0.343 N 
ATOM     16  C5  non d ame      -9.727   8.132  69.397  0.00  0.00     0.273 C 
ATOM     17  O2  non d ame      -8.647   7.982  69.852  0.00  0.00    -0.266 OA
ATOM     18  H5  non d ame     -10.948   7.778  67.649  0.00  0.00     0.163 HD
BRANCH  16  19
ATOM     19  C4  non d ame     -10.817   8.827  70.227  0.00  0.00     0.154 A 
ATOM     20  C1  non d ame     -11.862   8.201  70.979  0.00  0.00    -0.017 A 
ATOM     21  C2  non d ame     -12.588   9.269  71.552  0.00  0.00     0.077 A 
ATOM     22  H1  non d ame     -12.063   7.135  71.092  0.00  0.00     0.091 H 
ATOM     23  O1  non d ame     -12.017  10.375  71.170  0.00  0.00    -0.218 OA
ATOM     24  N1  non d ame     -10.983  10.142  70.395  0.00  0.00    -0.123 NA
BRANCH  21  25
ATOM     25  C3  non d ame     -13.809   9.148  72.453  0.00  0.00    -0.029 C 
ATOM     26  H2  non d ame     -13.607   8.426  73.246  0.00  0.00     0.036 H 
ATOM     27  H3  non d ame     -14.031  10.119  72.896  0.00  0.00     0.036 H 
ATOM     28  H4  non d ame     -14.664   8.813  71.865  0.00  0.00     0.036 H 
ENDBRANCH  21  25
ENDBRANCH  16  19
ENDBRANCH  13  15
BRANCH  13  29
ATOM     29  C8  non d ame      -9.584   5.910  66.419  0.00  0.00    -0.049 C 
ATOM     30  H7  non d ame      -9.823   6.307  65.432  0.00  0.00     0.030 H 
ATOM     31  H8  non d ame      -8.867   5.094  66.319  0.00  0.00     0.030 H 
ATOM     32  H9  non d ame     -10.493   5.540  66.890  0.00  0.00     0.030 H 
ENDBRANCH  13  29
ENDBRANCH  10  13
ENDBRANCH   7   9
BRANCH   7  33
ATOM     33  C11 non d ame      -8.103   8.730  62.690  0.00  0.00    -0.033 C 
ATOM     34  H12 non d ame      -9.001   9.082  62.182  0.00  0.00     0.042 H 
BRANCH  33  35
ATOM     35  C12 non d ame      -6.873   9.294  61.911  0.00  0.00    -0.071 C 
ATOM     36  H13 non d ame      -6.580   8.587  61.135  0.00  0.00     0.028 H 
ATOM     37  H14 non d ame      -7.139  10.247  61.453  0.00  0.00     0.028 H 
ATOM     38  H15 non d ame      -6.044   9.443  62.602  0.00  0.00     0.028 H 
ENDBRANCH  33  35
BRANCH  33  39
ATOM     39  C13 non d ame      -8.117   7.168  62.672  0.00  0.00    -0.071 C 
ATOM     40  H16 non d ame      -7.176   6.801  62.262  0.00  0.00     0.028 H 
ATOM     41  H17 non d ame      -8.243   6.794  63.688  0.00  0.00     0.028 H 
ATOM     42  H18 non d ame      -8.943   6.821  62.051  0.00  0.00     0.028 H 
ENDBRANCH  33  39
ENDBRANCH   7  33
ENDBRANCH   4   7
ENDBRANCH   1   3
BRANCH   1  43
ATOM     43  C15 non d ame      -9.452  13.305  66.716  0.00  0.00     0.240 C 
ATOM     44  O5  non d ame      -8.694  12.830  67.500  0.00  0.00    -0.271 OA
ATOM     45  N6  non d ame      -9.841  14.739  66.836  0.00  0.00    -0.355 N 
ATOM     46  H46 non d ame     -10.480  15.154  66.174  0.00  0.00     0.162 HD
BRANCH  45  47
ATOM     47  C20 non d ame      -9.286  15.559  67.934  0.00  0.00     0.013 C 
ATOM     48  H30 non d ame      -9.632  16.584  67.794  0.00  0.00     0.072 H 
BRANCH  47  49
ATOM     49  C21 non d ame      -7.776  15.512  67.880  0.00  0.00    -0.038 C 
ATOM     50  H31 non d ame      -7.432  16.073  68.750  0.00  0.00     0.036 H 
ATOM     51  H32 non d ame      -7.518  14.458  67.773  0.00  0.00     0.036 H 
BRANCH  49  52
ATOM     52  C22 non d ame      -7.198  16.230  66.641  0.00  0.00     0.018 C 
ATOM     53  H33 non d ame      -6.943  15.439  65.934  0.00  0.00     0.048 H 
ATOM     54  H34 non d ame      -7.932  16.988  66.370  0.00  0.00     0.048 H 
BRANCH  52  55
ATOM     55  C23 non d ame      -5.874  16.994  66.922  0.00  0.00     0.259 C 
ATOM     56  O7  non d ame      -4.879  16.710  66.337  0.00  0.00    -0.265 OA
BRANCH  55  57
ATOM     57  O8  non d ame      -5.860  18.029  67.897  0.00  0.00    -0.317 OA
BRANCH  57  58
ATOM     58  C29 non d ame      -6.257  19.309  67.395  0.00  0.00     0.052 C 
ATOM     59  H47 non d ame      -5.870  20.038  68.105  0.00  0.00     0.082 H 
ATOM     60  H48 non d ame      -5.928  19.333  66.356  0.00  0.00     0.082 H 
BRANCH  58  61
ATOM     61  C35 non d ame      -7.807  19.373  67.420  0.00  0.00    -0.034 A 
ATOM     62  C30 non d ame      -8.493  19.161  68.611  0.00  0.00    -0.075 A 
ATOM     63  C31 non d ame      -9.886  19.218  68.635  0.00  0.00    -0.082 A 
ATOM     64  H49 non d ame      -7.941  18.950  69.526  0.00  0.00     0.084 H 
ATOM     65  C32 non d ame     -10.593  19.487  67.460  0.00  0.00    -0.083 A 
ATOM     66  H50 non d ame     -10.420  19.053  69.570  0.00  0.00     0.083 H 
ATOM     67  C33 non d ame      -9.904  19.695  66.272  0.00  0.00    -0.082 A 
ATOM     68  H51 non d ame     -11.682  19.534  67.469  0.00  0.00     0.083 H 
ATOM     69  C34 non d ame      -8.512  19.641  66.245  0.00  0.00    -0.075 A 
ATOM     70  H52 non d ame     -10.459  19.902  65.356  0.00  0.00     0.083 H 
ATOM     71  H53 non d ame      -7.978  19.806  65.308  0.00  0.00     0.084 H 
ENDBRANCH  58  61
ENDBRANCH  57  58
ENDBRANCH  55  57
ENDBRANCH  52  55
ENDBRANCH  49  52
ENDBRANCH  47  49
BRANCH  47  72
ATOM     72  C24 non d ame      -9.766  15.016  69.278  0.00  0.00    -0.039 C 
ATOM     73  H35 non d ame      -9.524  13.953  69.264  0.00  0.00     0.036 H 
ATOM     74  H36 non d ame      -9.320  15.666  70.030  0.00  0.00     0.036 H 
BRANCH  72  75
ATOM     75  C25 non d ame     -11.356  15.136  69.432  0.00  0.00    -0.001 C 
ATOM     76  C26 non d ame     -11.724  16.093  70.717  0.00  0.00    -0.035 C 
ATOM     77  C27 non d ame     -12.604  15.439  71.511  0.00  0.00     0.085 C 
ATOM     78  H38 non d ame     -10.848  16.215  71.355  0.00  0.00     0.036 H 
ATOM     79  H39 non d ame     -12.281  16.969  70.384  0.00  0.00     0.036 H 
ATOM     80  N5  non d ame     -12.621  13.999  71.060  0.00  0.00    -0.049 N 
ATOM     81  H40 non d ame     -12.186  15.492  72.517  0.00  0.00     0.075 H 
ATOM     82  H41 non d ame     -13.575  15.888  71.301  0.00  0.00     0.075 H 
ATOM     83  C28 non d ame     -11.896  13.978  69.617  0.00  0.00     0.193 C 
ATOM     84  H42 non d ame     -12.048  13.487  71.715  0.00  0.00     0.280 HD
ATOM     85  H43 non d ame     -13.592  13.749  70.935  0.00  0.00     0.280 HD
ATOM     86  H44 non d ame     -12.484  13.885  68.703  0.00  0.00     0.129 H 
ATOM     87  H37 non d ame     -11.846  15.366  68.486  0.00  0.00     0.046 H 
BRANCH  83  88
ATOM     88  O6  non d ame     -10.938  12.920  69.563  0.00  0.00    -0.369 OA
ATOM     89  H45 non d ame     -11.352  12.130  69.210  0.00  0.00     0.212 HD
ENDBRANCH  83  88
ENDBRANCH  72  75
ENDBRANCH  47  72
ENDBRANCH  45  47
ENDBRANCH   1  43
BRANCH   1  90
ATOM     90  C16 non d ame     -11.487  12.113  65.844  0.00  0.00    -0.035 C 
ATOM     91  H21 non d ame     -11.567  11.028  65.773  0.00  0.00     0.037 H 
ATOM     92  H22 non d ame     -11.717  12.615  66.783  0.00  0.00     0.037 H 
BRANCH  90  93
ATOM     93  C17 non d ame     -12.467  12.696  64.778  0.00  0.00    -0.059 C 
ATOM     94  H23 non d ame     -13.475  12.638  65.188  0.00  0.00     0.038 H 
BRANCH  93  95
ATOM     95  C18 non d ame     -12.168  14.196  64.459  0.00  0.00    -0.073 C 
ATOM     96  H24 non d ame     -11.494  14.258  63.604  0.00  0.00     0.028 H 
ATOM     97  H25 non d ame     -13.100  14.710  64.224  0.00  0.00     0.028 H 
ATOM     98  H26 non d ame     -11.702  14.666  65.325  0.00  0.00     0.028 H 
ENDBRANCH  93  95
BRANCH  93  99
ATOM     99  C19 non d ame     -12.449  11.853  63.500  0.00  0.00    -0.073 C 
ATOM    100  H27 non d ame     -12.231  10.816  63.753  0.00  0.00     0.028 H 
ATOM    101  H28 non d ame     -13.422  11.912  63.012  0.00  0.00     0.028 H 
ATOM    102  H29 non d ame     -11.681  12.232  62.826  0.00  0.00     0.028 H 
ENDBRANCH  93  99
ENDBRANCH  90  93
ENDBRANCH   1  90
TORSDOF 26
ENDMDL
MODEL 6
REMARK VINA RESULT:      -6.3      3.041      7.747
REMARK  26 active torsions:
REMARK  status: ('A' for Active; 'I' for Inactive)
REMARK    1  A    between atoms: C2_2  and  C3_3 
REMARK    2  A    between atoms: C4_6  and  C5_7 
REMARK       I    between atoms: C5_7  and  N2_9 
REMARK    3  A    between atoms: N2_9  and  C6_10 
REMARK    4  A    between atoms: C6_10  and  C7_11 
REMARK    5  A    between atoms: C6_10  and  C8_13 
REMARK       I    between atoms: C7_11  and  N3_14 
REMARK    6  A    between atoms: N3_14  and  C9_15 
REMARK    7  A    between atoms: C9_15  and  C10_16 
REMARK    8  A    between atoms: C9_15  and  C11_18 
REMARK       I    between atoms: C10_16  and  N4_21 
REMARK    9  A    between atoms: C11_18  and  C12_19 
REMARK   10  A    between atoms: C11_18  and  C13_20 
REMARK   11  A    between atoms: N4_21  and  C14_22 
REMARK   12  A    between atoms: C14_22  and  C15_23 
REMARK   13  A    between atoms: C14_22  and  C16_25 
REMARK       I    between atoms: C15_23  and  N6_40 
REMARK   14  A    between atoms: C16_25  and  C17_26 
REMARK   15  A    between atoms: C17_26  and  C18_27 
REMARK   16  A    between atoms: C17_26  and  C19_28 
REMARK   17  A    between atoms: C20_29  and  C21_30 
REMARK   18  A    between atoms: C20_29  and  C24_33 
REMARK   19  A    between atoms: C20_29  and  N6_40 
REMARK   20  A    between atoms: C21_30  and  C22_31 
REMARK   21  A    between atoms: C22_31  and  C23_32 
REMARK   22  A    between atoms: C23_32  and  O8_43 
REMARK   23  A    between atoms: C24_33  and  C25_34 
REMARK   24  A    between atoms: C28_38  and  O6_39 
REMARK   25  A    between atoms: C29_42  and  O8_43 
REMARK   26  A    between atoms: C29_42  and  C35_49 
ROOT
ATOM      1  C14 non d ame      -7.516  10.467  68.429  0.00  0.00     0.089 C 
ATOM      2  H20 non d ame      -6.518  10.905  68.417  0.00  0.00     0.087 H 
ENDROOT
BRANCH   1   3
ATOM      3  N4  non d ame      -8.476  11.561  68.458  0.00  0.00    -0.346 N 
ATOM      4  C10 non d ame      -8.187  12.847  67.724  0.00  0.00     0.241 C 
ATOM      5  O4  non d ame      -7.174  12.978  67.119  0.00  0.00    -0.271 OA
ATOM      6  H19 non d ame      -9.330  11.430  68.981  0.00  0.00     0.163 HD
BRANCH   4   7
ATOM      7  C9  non d ame      -9.193  13.966  67.760  0.00  0.00     0.092 C 
ATOM      8  H11 non d ame      -9.828  13.907  66.876  0.00  0.00     0.088 H 
BRANCH   7   9
ATOM      9  N3  non d ame     -10.064  13.805  68.928  0.00  0.00    -0.346 N 
ATOM     10  C7  non d ame     -11.481  13.608  68.751  0.00  0.00     0.240 C 
ATOM     11  O3  non d ame     -11.939  13.579  67.673  0.00  0.00    -0.271 OA
ATOM     12  H10 non d ame      -9.683  13.830  69.863  0.00  0.00     0.163 HD
BRANCH  10  13
ATOM     13  C6  non d ame     -12.402  13.440  69.998  0.00  0.00     0.086 C 
ATOM     14  H6  non d ame     -13.434  13.211  69.734  0.00  0.00     0.086 H 
BRANCH  13  15
ATOM     15  N2  non d ame     -11.919  12.324  70.793  0.00  0.00    -0.343 N 
ATOM     16  C5  non d ame     -12.360  10.965  70.470  0.00  0.00     0.273 C 
ATOM     17  O2  non d ame     -13.105  10.781  69.571  0.00  0.00    -0.266 OA
ATOM     18  H5  non d ame     -11.285  12.489  71.561  0.00  0.00     0.163 HD
BRANCH  16  19
ATOM     19  C4  non d ame     -11.856   9.774  71.301  0.00  0.00     0.154 A 
ATOM     20  C1  non d ame     -10.520   9.264  71.358  0.00  0.00    -0.017 A 
ATOM     21  C2  non d ame     -10.584   8.175  72.257  0.00  0.00     0.077 A 
ATOM     22  H1  non d ame      -9.639   9.627  70.829  0.00  0.00     0.091 H 
ATOM     23  O1  non d ame     -11.817   8.081  72.664  0.00  0.00    -0.218 OA
ATOM     24  N1  non d ame     -12.578   9.003  72.118  0.00  0.00    -0.123 NA
BRANCH  21  25
ATOM     25  C3  non d ame      -9.425   7.281  72.674  0.00  0.00    -0.029 C 
ATOM     26  H2  non d ame      -9.290   7.340  73.755  0.00  0.00     0.036 H 
ATOM     27  H3  non d ame      -9.641   6.251  72.391  0.00  0.00     0.036 H 
ATOM     28  H4  non d ame      -8.513   7.610  72.175  0.00  0.00     0.036 H 
ENDBRANCH  21  25
ENDBRANCH  16  19
ENDBRANCH  13  15
BRANCH  13  29
ATOM     29  C8  non d ame     -12.379  14.705  70.818  0.00  0.00    -0.049 C 
ATOM     30  H7  non d ame     -13.401  15.027  71.020  0.00  0.00     0.030 H 
ATOM     31  H8  non d ame     -11.864  14.517  71.762  0.00  0.00     0.030 H 
ATOM     32  H9  non d ame     -11.855  15.485  70.268  0.00  0.00     0.030 H 
ENDBRANCH  13  29
ENDBRANCH  10  13
ENDBRANCH   7   9
BRANCH   7  33
ATOM     33  C11 non d ame      -8.449  15.330  67.855  0.00  0.00    -0.033 C 
ATOM     34  H12 non d ame      -7.388  15.117  67.989  0.00  0.00     0.042 H 
BRANCH  33  35
ATOM     35  C12 non d ame      -8.599  16.153  66.537  0.00  0.00    -0.071 C 
ATOM     36  H13 non d ame      -8.073  15.644  65.730  0.00  0.00     0.028 H 
ATOM     37  H14 non d ame      -9.655  16.242  66.283  0.00  0.00     0.028 H 
ATOM     38  H15 non d ame      -8.175  17.147  66.680  0.00  0.00     0.028 H 
ENDBRANCH  33  35
BRANCH  33  39
ATOM     39  C13 non d ame      -8.938  16.149  69.093  0.00  0.00    -0.071 C 
ATOM     40  H16 non d ame      -9.221  15.464  69.892  0.00  0.00     0.028 H 
ATOM     41  H17 non d ame      -8.135  16.800  69.438  0.00  0.00     0.028 H 
ATOM     42  H18 non d ame      -9.799  16.753  68.810  0.00  0.00     0.028 H 
ENDBRANCH  33  39
ENDBRANCH   7  33
ENDBRANCH   4   7
ENDBRANCH   1   3
BRANCH   1  43
ATOM     43  C15 non d ame      -7.793   9.599  67.169  0.00  0.00     0.240 C 
ATOM     44  O5  non d ame      -8.265   8.514  67.290  0.00  0.00    -0.271 OA
ATOM     45  N6  non d ame      -7.479  10.122  65.809  0.00  0.00    -0.355 N 
ATOM     46  H46 non d ame      -7.082  11.043  65.693  0.00  0.00     0.162 HD
BRANCH  45  47
ATOM     47  C20 non d ame      -7.749   9.284  64.621  0.00  0.00     0.013 C 
ATOM     48  H30 non d ame      -7.707   8.240  64.930  0.00  0.00     0.072 H 
BRANCH  47  49
ATOM     49  C21 non d ame      -6.697   9.554  63.569  0.00  0.00    -0.038 C 
ATOM     50  H31 non d ame      -6.917   8.868  62.750  0.00  0.00     0.036 H 
ATOM     51  H32 non d ame      -6.719  10.631  63.400  0.00  0.00     0.036 H 
BRANCH  49  52
ATOM     52  C22 non d ame      -5.269   9.217  64.049  0.00  0.00     0.018 C 
ATOM     53  H33 non d ame      -4.766  10.177  64.176  0.00  0.00     0.048 H 
ATOM     54  H34 non d ame      -5.394   8.550  64.903  0.00  0.00     0.048 H 
BRANCH  52  55
ATOM     55  C23 non d ame      -4.428   8.429  63.007  0.00  0.00     0.259 C 
ATOM     56  O7  non d ame      -3.536   8.958  62.428  0.00  0.00    -0.265 OA
BRANCH  55  57
ATOM     57  O8  non d ame      -4.744   7.068  62.742  0.00  0.00    -0.317 OA
BRANCH  57  58
ATOM     58  C29 non d ame      -4.817   6.247  63.911  0.00  0.00     0.052 C 
ATOM     59  H47 non d ame      -4.225   5.361  63.687  0.00  0.00     0.082 H 
ATOM     60  H48 non d ame      -4.538   6.894  64.743  0.00  0.00     0.082 H 
BRANCH  58  61
ATOM     61  C35 non d ame      -6.296   5.815  64.101  0.00  0.00    -0.034 A 
ATOM     62  C30 non d ame      -6.754   5.436  65.358  0.00  0.00    -0.075 A 
ATOM     63  C31 non d ame      -8.082   5.047  65.529  0.00  0.00    -0.082 A 
ATOM     64  H49 non d ame      -6.074   5.443  66.209  0.00  0.00     0.084 H 
ATOM     65  C32 non d ame      -8.952   5.037  64.436  0.00  0.00    -0.083 A 
ATOM     66  H50 non d ame      -8.439   4.752  66.516  0.00  0.00     0.083 H 
ATOM     67  C33 non d ame      -8.490   5.413  63.182  0.00  0.00    -0.082 A 
ATOM     68  H51 non d ame      -9.992   4.734  64.561  0.00  0.00     0.083 H 
ATOM     69  C34 non d ame      -7.164   5.804  63.008  0.00  0.00    -0.075 A 
ATOM     70  H52 non d ame      -9.170   5.401  62.331  0.00  0.00     0.083 H 
ATOM     71  H53 non d ame      -6.808   6.099  62.019  0.00  0.00     0.084 H 
ENDBRANCH  58  61
ENDBRANCH  57  58
ENDBRANCH  55  57
ENDBRANCH  52  55
ENDBRANCH  49  52
ENDBRANCH  47  49
BRANCH  47  72
ATOM     72  C24 non d ame      -9.129   9.616  64.059  0.00  0.00    -0.039 C 
ATOM     73  H35 non d ame      -9.052   9.455  62.984  0.00  0.00     0.036 H 
ATOM     74  H36 non d ame      -9.833   9.027  64.648  0.00  0.00     0.036 H 
BRANCH  72  75
ATOM     75  C25 non d ame      -9.504  11.158  64.279  0.00  0.00    -0.001 C 
ATOM     76  C26 non d ame     -10.878  11.280  65.175  0.00  0.00    -0.035 C 
ATOM     77  C27 non d ame     -11.746  12.097  64.534  0.00  0.00     0.085 C 
ATOM     78  H38 non d ame     -11.396  10.321  65.194  0.00  0.00     0.036 H 
ATOM     79  H39 non d ame     -10.671  11.806  66.107  0.00  0.00     0.036 H 
ATOM     80  N5  non d ame     -11.223  12.284  63.130  0.00  0.00    -0.049 N 
ATOM     81  H40 non d ame     -12.687  11.547  64.492  0.00  0.00     0.075 H 
ATOM     82  H41 non d ame     -11.694  13.049  65.061  0.00  0.00     0.075 H 
ATOM     83  C28 non d ame      -9.696  11.758  63.151  0.00  0.00     0.193 C 
ATOM     84  H42 non d ame     -11.766  11.671  62.538  0.00  0.00     0.280 HD
ATOM     85  H43 non d ame     -11.218  13.279  62.956  0.00  0.00     0.280 HD
ATOM     86  H44 non d ame      -8.867  12.466  63.159  0.00  0.00     0.129 H 
ATOM     87  H37 non d ame      -8.647  11.749  64.603  0.00  0.00     0.046 H 
BRANCH  83  88
ATOM     88  O6  non d ame      -9.456  10.899  62.036  0.00  0.00    -0.369 OA
ATOM     89  H45 non d ame      -8.687  10.353  62.212  0.00  0.00     0.212 HD
ENDBRANCH  83  88
ENDBRANCH  72  75
ENDBRANCH  47  72
ENDBRANCH  45  47
ENDBRANCH   1  43
BRANCH   1  90
ATOM     90  C16 non d ame      -7.690   9.621  69.681  0.00  0.00    -0.035 C 
ATOM     91  H21 non d ame      -8.556  10.040  70.194  0.00  0.00     0.037 H 
ATOM     92  H22 non d ame      -7.711   8.590  69.332  0.00  0.00     0.037 H 
BRANCH  90  93
ATOM     93  C17 non d ame      -6.494   9.726  70.679  0.00  0.00    -0.059 C 
ATOM     94  H23 non d ame      -6.899   9.997  71.654  0.00  0.00     0.038 H 
BRANCH  93  95
ATOM     95  C18 non d ame      -5.737   8.370  70.839  0.00  0.00    -0.073 C 
ATOM     96  H24 non d ame      -4.665   8.536  70.726  0.00  0.00     0.028 H 
ATOM     97  H25 non d ame      -5.938   7.955  71.827  0.00  0.00     0.028 H 
ATOM     98  H26 non d ame      -6.079   7.670  70.076  0.00  0.00     0.028 H 
ENDBRANCH  93  95
BRANCH  93  99
ATOM     99  C19 non d ame      -5.531  10.842  70.262  0.00  0.00    -0.073 C 
ATOM    100  H27 non d ame      -5.330  10.766  69.194  0.00  0.00     0.028 H 
ATOM    101  H28 non d ame      -5.981  11.810  70.480  0.00  0.00     0.028 H 
ATOM    102  H29 non d ame      -4.598  10.742  70.816  0.00  0.00     0.028 H 
ENDBRANCH  93  99
ENDBRANCH  90  93
ENDBRANCH   1  90
TORSDOF 26
ENDMDL
