MODEL 1
REMARK VINA RESULT:      -7.3      0.000      0.000
REMARK  26 active torsions:
REMARK  status: ('A' for Active; 'I' for Inactive)
REMARK    1  A    between atoms: C2_2  and  C3_3 
REMARK    2  A    between atoms: C4_6  and  C5_7 
REMARK       I    between atoms: C5_7  and  N2_9 
REMARK    3  A    between atoms: N2_9  and  C6_10 
REMARK    4  A    between atoms: C6_10  and  C7_11 
REMARK    5  A    between atoms: C6_10  and  C8_13 
REMARK       I    between atoms: C7_11  and  N3_14 
REMARK    6  A    between atoms: N3_14  and  C9_15 
REMARK    7  A    between atoms: C9_15  and  C10_16 
REMARK    8  A    between atoms: C9_15  and  C11_18 
REMARK       I    between atoms: C10_16  and  N4_21 
REMARK    9  A    between atoms: C11_18  and  C12_19 
REMARK   10  A    between atoms: C11_18  and  C13_20 
REMARK   11  A    between atoms: N4_21  and  C14_22 
REMARK   12  A    between atoms: C14_22  and  C15_23 
REMARK   13  A    between atoms: C14_22  and  C16_25 
REMARK       I    between atoms: C15_23  and  N6_40 
REMARK   14  A    between atoms: C16_25  and  C17_26 
REMARK   15  A    between atoms: C17_26  and  C18_27 
REMARK   16  A    between atoms: C17_26  and  C19_28 
REMARK   17  A    between atoms: C20_29  and  C21_30 
REMARK   18  A    between atoms: C20_29  and  C24_33 
REMARK   19  A    between atoms: C20_29  and  N6_40 
REMARK   20  A    between atoms: C21_30  and  C22_31 
REMARK   21  A    between atoms: C22_31  and  C23_32 
REMARK   22  A    between atoms: C23_32  and  O8_43 
REMARK   23  A    between atoms: C24_33  and  C25_34 
REMARK   24  A    between atoms: C28_38  and  O6_39 
REMARK   25  A    between atoms: C29_42  and  O8_43 
REMARK   26  A    between atoms: C29_42  and  C35_49 
ROOT
ATOM      1  C14 non d ame     -11.927  14.083  69.699  0.00  0.00     0.089 C 
ATOM      2  H20 non d ame     -12.906  13.626  69.555  0.00  0.00     0.087 H 
ENDROOT
BRANCH   1   3
ATOM      3  N4  non d ame     -10.926  13.042  69.519  0.00  0.00    -0.346 N 
ATOM      4  C10 non d ame     -11.137  11.951  68.500  0.00  0.00     0.241 C 
ATOM      5  O4  non d ame     -12.122  11.930  67.838  0.00  0.00    -0.271 OA
ATOM      6  H19 non d ame     -10.096  13.076  70.095  0.00  0.00     0.163 HD
BRANCH   4   7
ATOM      7  C9  non d ame     -10.088  10.884  68.323  0.00  0.00     0.092 C 
ATOM      8  H11 non d ame      -9.810  10.826  67.271  0.00  0.00     0.088 H 
BRANCH   7   9
ATOM      9  N3  non d ame      -8.882  11.255  69.069  0.00  0.00    -0.346 N 
ATOM     10  C7  non d ame      -7.649  11.511  68.367  0.00  0.00     0.240 C 
ATOM     11  O3  non d ame      -7.609  11.420  67.201  0.00  0.00    -0.271 OA
ATOM     12  H10 non d ame      -8.902  11.335  70.076  0.00  0.00     0.163 HD
BRANCH  10  13
ATOM     13  C6  non d ame      -6.369  11.902  69.168  0.00  0.00     0.086 C 
ATOM     14  H6  non d ame      -5.456  11.799  68.581  0.00  0.00     0.086 H 
BRANCH  13  15
ATOM     15  N2  non d ame      -6.461  13.301  69.550  0.00  0.00    -0.343 N 
ATOM     16  C5  non d ame      -5.237  14.095  69.680  0.00  0.00     0.273 C 
ATOM     17  O2  non d ame      -4.184  13.599  69.477  0.00  0.00    -0.266 OA
ATOM     18  H5  non d ame      -7.365  13.717  69.724  0.00  0.00     0.163 HD
BRANCH  16  19
ATOM     19  C4  non d ame      -5.320  15.577  70.081  0.00  0.00     0.154 A 
ATOM     20  C1  non d ame      -5.916  16.642  69.335  0.00  0.00    -0.017 A 
ATOM     21  C2  non d ame      -5.729  17.794  70.132  0.00  0.00     0.077 A 
ATOM     22  H1  non d ame      -6.409  16.589  68.363  0.00  0.00     0.091 H 
ATOM     23  O1  non d ame      -5.100  17.422  71.209  0.00  0.00    -0.218 OA
ATOM     24  N1  non d ame      -4.850  16.132  71.201  0.00  0.00    -0.123 NA
BRANCH  21  25
ATOM     25  C3  non d ame      -6.182  19.207  69.794  0.00  0.00    -0.029 C 
ATOM     26  H2  non d ame      -6.527  19.706  70.701  0.00  0.00     0.036 H 
ATOM     27  H3  non d ame      -5.348  19.764  69.368  0.00  0.00     0.036 H 
ATOM     28  H4  non d ame      -6.997  19.166  69.071  0.00  0.00     0.036 H 
ENDBRANCH  21  25
ENDBRANCH  16  19
ENDBRANCH  13  15
BRANCH  13  29
ATOM     29  C8  non d ame      -6.257  11.038  70.398  0.00  0.00    -0.049 C 
ATOM     30  H7  non d ame      -6.991  11.360  71.137  0.00  0.00     0.030 H 
ATOM     31  H8  non d ame      -6.445   9.997  70.129  0.00  0.00     0.030 H 
ATOM     32  H9  non d ame      -5.256  11.129  70.817  0.00  0.00     0.030 H 
ENDBRANCH  13  29
ENDBRANCH  10  13
ENDBRANCH   7   9
BRANCH   7  33
ATOM     33  C11 non d ame     -10.631   9.528  68.861  0.00  0.00    -0.033 C 
ATOM     34  H12 non d ame     -11.704   9.644  69.020  0.00  0.00     0.042 H 
BRANCH  33  35
ATOM     35  C12 non d ame     -10.432   8.383  67.819  0.00  0.00    -0.071 C 
ATOM     36  H13 non d ame     -10.461   8.799  66.812  0.00  0.00     0.028 H 
ATOM     37  H14 non d ame      -9.468   7.903  67.987  0.00  0.00     0.028 H 
ATOM     38  H15 non d ame     -11.228   7.648  67.933  0.00  0.00     0.028 H 
ENDBRANCH  33  35
BRANCH  33  39
ATOM     39  C13 non d ame      -9.975   9.167  70.232  0.00  0.00    -0.071 C 
ATOM     40  H16 non d ame      -9.945   8.084  70.346  0.00  0.00     0.028 H 
ATOM     41  H17 non d ame      -8.961   9.566  70.266  0.00  0.00     0.028 H 
ATOM     42  H18 non d ame     -10.564   9.601  71.040  0.00  0.00     0.028 H 
ENDBRANCH  33  39
ENDBRANCH   7  33
ENDBRANCH   4   7
ENDBRANCH   1   3
BRANCH   1  43
ATOM     43  C15 non d ame     -11.650  15.218  68.672  0.00  0.00     0.240 C 
ATOM     44  O5  non d ame     -12.032  16.323  68.894  0.00  0.00    -0.271 OA
ATOM     45  N6  non d ame     -10.902  14.932  67.415  0.00  0.00    -0.355 N 
ATOM     46  H46 non d ame     -10.569  13.999  67.217  0.00  0.00     0.162 HD
BRANCH  45  47
ATOM     47  C20 non d ame     -10.647  16.022  66.449  0.00  0.00     0.013 C 
ATOM     48  H30 non d ame     -11.315  16.848  66.692  0.00  0.00     0.072 H 
BRANCH  47  49
ATOM     49  C21 non d ame     -10.927  15.526  65.049  0.00  0.00    -0.038 C 
ATOM     50  H31 non d ame     -11.444  16.343  64.545  0.00  0.00     0.036 H 
ATOM     51  H32 non d ame      -9.970  15.168  64.667  0.00  0.00     0.036 H 
BRANCH  49  52
ATOM     52  C22 non d ame     -11.887  14.317  65.022  0.00  0.00     0.018 C 
ATOM     53  H33 non d ame     -11.848  13.886  66.023  0.00  0.00     0.048 H 
ATOM     54  H34 non d ame     -12.830  14.698  64.629  0.00  0.00     0.048 H 
BRANCH  52  55
ATOM     55  C23 non d ame     -11.442  13.187  64.052  0.00  0.00     0.259 C 
ATOM     56  O7  non d ame     -12.175  12.802  63.200  0.00  0.00    -0.265 OA
BRANCH  55  57
ATOM     57  O8  non d ame     -10.153  12.605  64.203  0.00  0.00    -0.317 OA
BRANCH  57  58
ATOM     58  C29 non d ame     -10.175  11.202  64.482  0.00  0.00     0.052 C 
ATOM     59  H47 non d ame      -9.758  11.093  65.482  0.00  0.00     0.082 H 
ATOM     60  H48 non d ame     -11.196  10.878  64.278  0.00  0.00     0.082 H 
BRANCH  58  61
ATOM     61  C35 non d ame      -9.227  10.499  63.474  0.00  0.00    -0.034 A 
ATOM     62  C30 non d ame      -8.751  11.192  62.366  0.00  0.00    -0.075 A 
ATOM     63  C31 non d ame      -7.899  10.560  61.461  0.00  0.00    -0.082 A 
ATOM     64  H49 non d ame      -9.046  12.228  62.206  0.00  0.00     0.084 H 
ATOM     65  C32 non d ame      -7.525   9.230  61.667  0.00  0.00    -0.083 A 
ATOM     66  H50 non d ame      -7.527  11.106  60.595  0.00  0.00     0.083 H 
ATOM     67  C33 non d ame      -8.004   8.541  62.773  0.00  0.00    -0.082 A 
ATOM     68  H51 non d ame      -6.859   8.728  60.965  0.00  0.00     0.083 H 
ATOM     69  C34 non d ame      -8.854   9.170  63.681  0.00  0.00    -0.075 A 
ATOM     70  H52 non d ame      -7.712   7.503  62.930  0.00  0.00     0.083 H 
ATOM     71  H53 non d ame      -9.226   8.622  64.549  0.00  0.00     0.084 H 
ENDBRANCH  58  61
ENDBRANCH  57  58
ENDBRANCH  55  57
ENDBRANCH  52  55
ENDBRANCH  49  52
ENDBRANCH  47  49
BRANCH  47  72
ATOM     72  C24 non d ame      -9.190  16.470  66.550  0.00  0.00    -0.039 C 
ATOM     73  H35 non d ame      -8.715  15.762  67.229  0.00  0.00     0.036 H 
ATOM     74  H36 non d ame      -8.841  16.556  65.521  0.00  0.00     0.036 H 
BRANCH  72  75
ATOM     75  C25 non d ame      -9.062  17.922  67.216  0.00  0.00    -0.001 C 
ATOM     76  C26 non d ame     -10.483  18.735  67.068  0.00  0.00    -0.035 C 
ATOM     77  C27 non d ame     -10.237  19.953  66.532  0.00  0.00     0.085 C 
ATOM     78  H38 non d ame     -11.114  18.251  66.322  0.00  0.00     0.036 H 
ATOM     79  H39 non d ame     -10.886  18.966  68.054  0.00  0.00     0.036 H 
ATOM     80  N5  non d ame      -8.824  19.923  65.999  0.00  0.00    -0.049 N 
ATOM     81  H40 non d ame     -10.930  20.051  65.696  0.00  0.00     0.075 H 
ATOM     82  H41 non d ame     -10.285  20.653  67.366  0.00  0.00     0.075 H 
ATOM     83  C28 non d ame      -8.133  18.616  66.647  0.00  0.00     0.193 C 
ATOM     84  H42 non d ame      -8.898  19.786  65.001  0.00  0.00     0.280 HD
ATOM     85  H43 non d ame      -8.363  20.744  66.363  0.00  0.00     0.280 HD
ATOM     86  H44 non d ame      -7.425  18.715  67.471  0.00  0.00     0.129 H 
ATOM     87  H37 non d ame      -8.614  17.882  68.208  0.00  0.00     0.046 H 
BRANCH  83  88
ATOM     88  O6  non d ame      -7.445  17.873  65.639  0.00  0.00    -0.369 OA
ATOM     89  H45 non d ame      -8.015  17.766  64.875  0.00  0.00     0.212 HD
ENDBRANCH  83  88
ENDBRANCH  72  75
ENDBRANCH  47  72
ENDBRANCH  45  47
ENDBRANCH   1  43
BRANCH   1  90
ATOM     90  C16 non d ame     -11.820  14.636  71.112  0.00  0.00    -0.035 C 
ATOM     91  H21 non d ame     -10.985  14.104  71.568  0.00  0.00     0.037 H 
ATOM     92  H22 non d ame     -11.778  15.718  70.996  0.00  0.00     0.037 H 
BRANCH  90  93
ATOM     93  C17 non d ame     -13.070  14.334  71.999  0.00  0.00    -0.059 C 
ATOM     94  H23 non d ame     -12.830  14.630  73.020  0.00  0.00     0.038 H 
BRANCH  93  95
ATOM     95  C18 non d ame     -14.324  15.147  71.547  0.00  0.00    -0.073 C 
ATOM     96  H24 non d ame     -15.225  14.568  71.752  0.00  0.00     0.028 H 
ATOM     97  H25 non d ame     -14.365  16.087  72.097  0.00  0.00     0.028 H 
ATOM     98  H26 non d ame     -14.259  15.354  70.479  0.00  0.00     0.028 H 
ENDBRANCH  93  95
BRANCH  93  99
ATOM     99  C19 non d ame     -13.373  12.833  72.022  0.00  0.00    -0.073 C 
ATOM    100  H27 non d ame     -14.307  12.660  72.556  0.00  0.00     0.028 H 
ATOM    101  H28 non d ame     -13.464  12.465  71.000  0.00  0.00     0.028 H 
ATOM    102  H29 non d ame     -12.563  12.307  72.527  0.00  0.00     0.028 H 
ENDBRANCH  93  99
ENDBRANCH  90  93
ENDBRANCH   1  90
TORSDOF 26
ENDMDL
MODEL 2
REMARK VINA RESULT:      -7.2      1.614      2.113
REMARK  26 active torsions:
REMARK  status: ('A' for Active; 'I' for Inactive)
REMARK    1  A    between atoms: C2_2  and  C3_3 
REMARK    2  A    between atoms: C4_6  and  C5_7 
REMARK       I    between atoms: C5_7  and  N2_9 
REMARK    3  A    between atoms: N2_9  and  C6_10 
REMARK    4  A    between atoms: C6_10  and  C7_11 
REMARK    5  A    between atoms: C6_10  and  C8_13 
REMARK       I    between atoms: C7_11  and  N3_14 
REMARK    6  A    between atoms: N3_14  and  C9_15 
REMARK    7  A    between atoms: C9_15  and  C10_16 
REMARK    8  A    between atoms: C9_15  and  C11_18 
REMARK       I    between atoms: C10_16  and  N4_21 
REMARK    9  A    between atoms: C11_18  and  C12_19 
REMARK   10  A    between atoms: C11_18  and  C13_20 
REMARK   11  A    between atoms: N4_21  and  C14_22 
REMARK   12  A    between atoms: C14_22  and  C15_23 
REMARK   13  A    between atoms: C14_22  and  C16_25 
REMARK       I    between atoms: C15_23  and  N6_40 
REMARK   14  A    between atoms: C16_25  and  C17_26 
REMARK   15  A    between atoms: C17_26  and  C18_27 
REMARK   16  A    between atoms: C17_26  and  C19_28 
REMARK   17  A    between atoms: C20_29  and  C21_30 
REMARK   18  A    between atoms: C20_29  and  C24_33 
REMARK   19  A    between atoms: C20_29  and  N6_40 
REMARK   20  A    between atoms: C21_30  and  C22_31 
REMARK   21  A    between atoms: C22_31  and  C23_32 
REMARK   22  A    between atoms: C23_32  and  O8_43 
REMARK   23  A    between atoms: C24_33  and  C25_34 
REMARK   24  A    between atoms: C28_38  and  O6_39 
REMARK   25  A    between atoms: C29_42  and  O8_43 
REMARK   26  A    between atoms: C29_42  and  C35_49 
ROOT
ATOM      1  C14 non d ame     -12.315  13.981  70.240  0.00  0.00     0.089 C 
ATOM      2  H20 non d ame     -13.377  13.736  70.269  0.00  0.00     0.087 H 
ENDROOT
BRANCH   1   3
ATOM      3  N4  non d ame     -11.587  12.747  69.984  0.00  0.00    -0.346 N 
ATOM      4  C10 non d ame     -12.072  11.442  70.563  0.00  0.00     0.241 C 
ATOM      5  O4  non d ame     -13.050  11.411  71.236  0.00  0.00    -0.271 OA
ATOM      6  H19 non d ame     -10.755  12.796  69.411  0.00  0.00     0.163 HD
BRANCH   4   7
ATOM      7  C9  non d ame     -11.309  10.174  70.284  0.00  0.00     0.092 C 
ATOM      8  H11 non d ame     -11.727   9.692  69.400  0.00  0.00     0.088 H 
BRANCH   7   9
ATOM      9  N3  non d ame      -9.913  10.500  69.978  0.00  0.00    -0.346 N 
ATOM     10  C7  non d ame      -9.447  10.472  68.614  0.00  0.00     0.240 C 
ATOM     11  O3  non d ame     -10.183  10.186  67.749  0.00  0.00    -0.271 OA
ATOM     12  H10 non d ame      -9.267  10.746  70.714  0.00  0.00     0.163 HD
BRANCH  10  13
ATOM     13  C6  non d ame      -7.959  10.816  68.296  0.00  0.00     0.086 C 
ATOM     14  H6  non d ame      -7.748  10.827  67.227  0.00  0.00     0.086 H 
BRANCH  13  15
ATOM     15  N2  non d ame      -7.669  12.152  68.791  0.00  0.00    -0.343 N 
ATOM     16  C5  non d ame      -6.783  13.028  68.022  0.00  0.00     0.273 C 
ATOM     17  O2  non d ame      -6.307  12.649  67.009  0.00  0.00    -0.266 OA
ATOM     18  H5  non d ame      -8.078  12.467  69.658  0.00  0.00     0.163 HD
BRANCH  16  19
ATOM     19  C4  non d ame      -6.469  14.444  68.531  0.00  0.00     0.154 A 
ATOM     20  C1  non d ame      -5.390  15.291  68.122  0.00  0.00    -0.017 A 
ATOM     21  C2  non d ame      -5.546  16.471  68.882  0.00  0.00     0.077 A 
ATOM     22  H1  non d ame      -4.613  15.081  67.387  0.00  0.00     0.091 H 
ATOM     23  O1  non d ame      -6.596  16.312  69.635  0.00  0.00    -0.218 OA
ATOM     24  N1  non d ame      -7.150  15.136  69.448  0.00  0.00    -0.123 NA
BRANCH  21  25
ATOM     25  C3  non d ame      -4.652  17.703  68.827  0.00  0.00    -0.029 C 
ATOM     26  H2  non d ame      -4.721  18.245  69.772  0.00  0.00     0.036 H 
ATOM     27  H3  non d ame      -3.620  17.396  68.659  0.00  0.00     0.036 H 
ATOM     28  H4  non d ame      -4.975  18.351  68.013  0.00  0.00     0.036 H 
ENDBRANCH  21  25
ENDBRANCH  16  19
ENDBRANCH  13  15
BRANCH  13  29
ATOM     29  C8  non d ame      -7.054   9.812  68.962  0.00  0.00    -0.049 C 
ATOM     30  H7  non d ame      -7.278   8.814  68.585  0.00  0.00     0.030 H 
ATOM     31  H8  non d ame      -6.014  10.058  68.742  0.00  0.00     0.030 H 
ATOM     32  H9  non d ame      -7.213   9.837  70.039  0.00  0.00     0.030 H 
ENDBRANCH  13  29
ENDBRANCH  10  13
ENDBRANCH   7   9
BRANCH   7  33
ATOM     33  C11 non d ame     -11.362   9.250  71.535  0.00  0.00    -0.033 C 
ATOM     34  H12 non d ame     -11.725   9.849  72.371  0.00  0.00     0.042 H 
BRANCH  33  35
ATOM     35  C12 non d ame     -12.366   8.073  71.331  0.00  0.00    -0.071 C 
ATOM     36  H13 non d ame     -12.659   7.673  72.302  0.00  0.00     0.028 H 
ATOM     37  H14 non d ame     -13.250   8.436  70.807  0.00  0.00     0.028 H 
ATOM     38  H15 non d ame     -11.891   7.289  70.742  0.00  0.00     0.028 H 
ENDBRANCH  33  35
BRANCH  33  39
ATOM     39  C13 non d ame      -9.937   8.722  71.901  0.00  0.00    -0.071 C 
ATOM     40  H16 non d ame      -9.762   7.772  71.398  0.00  0.00     0.028 H 
ATOM     41  H17 non d ame      -9.188   9.447  71.582  0.00  0.00     0.028 H 
ATOM     42  H18 non d ame      -9.869   8.581  72.979  0.00  0.00     0.028 H 
ENDBRANCH  33  39
ENDBRANCH   7  33
ENDBRANCH   4   7
ENDBRANCH   1   3
BRANCH   1  43
ATOM     43  C15 non d ame     -11.977  14.999  69.113  0.00  0.00     0.240 C 
ATOM     44  O5  non d ame     -12.270  16.144  69.243  0.00  0.00    -0.271 OA
ATOM     45  N6  non d ame     -11.280  14.548  67.875  0.00  0.00    -0.355 N 
ATOM     46  H46 non d ame     -11.022  13.579  67.755  0.00  0.00     0.162 HD
BRANCH  45  47
ATOM     47  C20 non d ame     -10.964  15.528  66.813  0.00  0.00     0.013 C 
ATOM     48  H30 non d ame     -11.696  16.334  66.874  0.00  0.00     0.072 H 
BRANCH  47  49
ATOM     49  C21 non d ame     -11.053  14.851  65.465  0.00  0.00    -0.038 C 
ATOM     50  H31 non d ame     -11.443  15.605  64.781  0.00  0.00     0.036 H 
ATOM     51  H32 non d ame     -10.069  14.413  65.291  0.00  0.00     0.036 H 
BRANCH  49  52
ATOM     52  C22 non d ame     -12.060  13.681  65.446  0.00  0.00     0.018 C 
ATOM     53  H33 non d ame     -11.977  13.204  66.423  0.00  0.00     0.048 H 
ATOM     54  H34 non d ame     -13.009  14.113  65.130  0.00  0.00     0.048 H 
BRANCH  52  55
ATOM     55  C23 non d ame     -11.720  12.580  64.403  0.00  0.00     0.259 C 
ATOM     56  O7  non d ame     -12.566  12.143  63.692  0.00  0.00    -0.265 OA
BRANCH  55  57
ATOM     57  O8  non d ame     -10.389  12.089  64.316  0.00  0.00    -0.317 OA
BRANCH  57  58
ATOM     58  C29 non d ame     -10.287  10.663  64.377  0.00  0.00     0.052 C 
ATOM     59  H47 non d ame      -9.917  10.436  65.376  0.00  0.00     0.082 H 
ATOM     60  H48 non d ame     -11.258  10.285  64.057  0.00  0.00     0.082 H 
BRANCH  58  61
ATOM     61  C35 non d ame      -9.220  10.214  63.344  0.00  0.00    -0.034 A 
ATOM     62  C30 non d ame      -8.689   8.930  63.405  0.00  0.00    -0.075 A 
ATOM     63  C31 non d ame      -7.730   8.526  62.477  0.00  0.00    -0.082 A 
ATOM     64  H49 non d ame      -9.023   8.241  64.180  0.00  0.00     0.084 H 
ATOM     65  C32 non d ame      -7.302   9.413  61.486  0.00  0.00    -0.083 A 
ATOM     66  H50 non d ame      -7.317   7.519  62.527  0.00  0.00     0.083 H 
ATOM     67  C33 non d ame      -7.832  10.695  61.430  0.00  0.00    -0.082 A 
ATOM     68  H51 non d ame      -6.552   9.106  60.756  0.00  0.00     0.083 H 
ATOM     69  C34 non d ame      -8.793  11.101  62.355  0.00  0.00    -0.075 A 
ATOM     70  H52 non d ame      -7.494  11.385  60.657  0.00  0.00     0.083 H 
ATOM     71  H53 non d ame      -9.206  12.110  62.303  0.00  0.00     0.084 H 
ENDBRANCH  58  61
ENDBRANCH  57  58
ENDBRANCH  55  57
ENDBRANCH  52  55
ENDBRANCH  49  52
ENDBRANCH  47  49
BRANCH  47  72
ATOM     72  C24 non d ame      -9.553  16.075  67.018  0.00  0.00    -0.039 C 
ATOM     73  H35 non d ame      -9.220  15.668  67.973  0.00  0.00     0.036 H 
ATOM     74  H36 non d ame      -9.012  15.832  66.104  0.00  0.00     0.036 H 
BRANCH  72  75
ATOM     75  C25 non d ame      -9.551  17.671  67.159  0.00  0.00    -0.001 C 
ATOM     76  C26 non d ame      -8.283  18.306  66.327  0.00  0.00    -0.035 C 
ATOM     77  C27 non d ame      -7.595  19.137  67.145  0.00  0.00     0.085 C 
ATOM     78  H38 non d ame      -7.560  17.523  66.094  0.00  0.00     0.036 H 
ATOM     79  H39 non d ame      -8.645  18.965  65.538  0.00  0.00     0.036 H 
ATOM     80  N5  non d ame      -8.084  18.878  68.550  0.00  0.00    -0.049 N 
ATOM     81  H40 non d ame      -6.553  18.827  67.069  0.00  0.00     0.075 H 
ATOM     82  H41 non d ame      -7.888  20.144  66.848  0.00  0.00     0.075 H 
ATOM     83  C28 non d ame      -9.450  18.031  68.396  0.00  0.00     0.193 C 
ATOM     84  H42 non d ame      -7.390  18.292  68.991  0.00  0.00     0.280 HD
ATOM     85  H43 non d ame      -8.308  19.780  68.946  0.00  0.00     0.280 HD
ATOM     86  H44 non d ame     -10.418  18.510  68.543  0.00  0.00     0.129 H 
ATOM     87  H37 non d ame     -10.533  18.103  66.972  0.00  0.00     0.046 H 
BRANCH  83  88
ATOM     88  O6  non d ame      -9.438  16.912  69.284  0.00  0.00    -0.369 OA
ATOM     89  H45 non d ame     -10.200  16.956  69.865  0.00  0.00     0.212 HD
ENDBRANCH  83  88
ENDBRANCH  72  75
ENDBRANCH  47  72
ENDBRANCH  45  47
ENDBRANCH   1  43
BRANCH   1  90
ATOM     90  C16 non d ame     -11.880  14.544  71.584  0.00  0.00    -0.035 C 
ATOM     91  H21 non d ame     -11.149  13.834  71.971  0.00  0.00     0.037 H 
ATOM     92  H22 non d ame     -11.586  15.574  71.384  0.00  0.00     0.037 H 
BRANCH  90  93
ATOM     93  C17 non d ame     -13.031  14.609  72.638  0.00  0.00    -0.059 C 
ATOM     94  H23 non d ame     -13.171  13.605  73.036  0.00  0.00     0.038 H 
BRANCH  93  95
ATOM     95  C18 non d ame     -12.685  15.553  73.833  0.00  0.00    -0.073 C 
ATOM     96  H24 non d ame     -11.719  16.026  73.654  0.00  0.00     0.028 H 
ATOM     97  H25 non d ame     -13.453  16.321  73.923  0.00  0.00     0.028 H 
ATOM     98  H26 non d ame     -12.642  14.973  74.754  0.00  0.00     0.028 H 
ENDBRANCH  93  95
BRANCH  93  99
ATOM     99  C19 non d ame     -14.351  15.023  71.980  0.00  0.00    -0.073 C 
ATOM    100  H27 non d ame     -14.559  14.364  71.138  0.00  0.00     0.028 H 
ATOM    101  H28 non d ame     -15.158  14.950  72.708  0.00  0.00     0.028 H 
ATOM    102  H29 non d ame     -14.273  16.051  71.626  0.00  0.00     0.028 H 
ENDBRANCH  93  99
ENDBRANCH  90  93
ENDBRANCH   1  90
TORSDOF 26
ENDMDL
MODEL 3
REMARK VINA RESULT:      -7.2      3.458      9.158
REMARK  26 active torsions:
REMARK  status: ('A' for Active; 'I' for Inactive)
REMARK    1  A    between atoms: C2_2  and  C3_3 
REMARK    2  A    between atoms: C4_6  and  C5_7 
REMARK       I    between atoms: C5_7  and  N2_9 
REMARK    3  A    between atoms: N2_9  and  C6_10 
REMARK    4  A    between atoms: C6_10  and  C7_11 
REMARK    5  A    between atoms: C6_10  and  C8_13 
REMARK       I    between atoms: C7_11  and  N3_14 
REMARK    6  A    between atoms: N3_14  and  C9_15 
REMARK    7  A    between atoms: C9_15  and  C10_16 
REMARK    8  A    between atoms: C9_15  and  C11_18 
REMARK       I    between atoms: C10_16  and  N4_21 
REMARK    9  A    between atoms: C11_18  and  C12_19 
REMARK   10  A    between atoms: C11_18  and  C13_20 
REMARK   11  A    between atoms: N4_21  and  C14_22 
REMARK   12  A    between atoms: C14_22  and  C15_23 
REMARK   13  A    between atoms: C14_22  and  C16_25 
REMARK       I    between atoms: C15_23  and  N6_40 
REMARK   14  A    between atoms: C16_25  and  C17_26 
REMARK   15  A    between atoms: C17_26  and  C18_27 
REMARK   16  A    between atoms: C17_26  and  C19_28 
REMARK   17  A    between atoms: C20_29  and  C21_30 
REMARK   18  A    between atoms: C20_29  and  C24_33 
REMARK   19  A    between atoms: C20_29  and  N6_40 
REMARK   20  A    between atoms: C21_30  and  C22_31 
REMARK   21  A    between atoms: C22_31  and  C23_32 
REMARK   22  A    between atoms: C23_32  and  O8_43 
REMARK   23  A    between atoms: C24_33  and  C25_34 
REMARK   24  A    between atoms: C28_38  and  O6_39 
REMARK   25  A    between atoms: C29_42  and  O8_43 
REMARK   26  A    between atoms: C29_42  and  C35_49 
ROOT
ATOM      1  C14 non d ame      -9.313   6.812  66.786  0.00  0.00     0.089 C 
ATOM      2  H20 non d ame      -9.766   6.424  65.874  0.00  0.00     0.087 H 
ENDROOT
BRANCH   1   3
ATOM      3  N4  non d ame      -8.945   8.198  66.537  0.00  0.00    -0.346 N 
ATOM      4  C10 non d ame      -8.401   8.612  65.193  0.00  0.00     0.241 C 
ATOM      5  O4  non d ame      -8.266   7.811  64.327  0.00  0.00    -0.271 OA
ATOM      6  H19 non d ame      -9.066   8.864  67.287  0.00  0.00     0.163 HD
BRANCH   4   7
ATOM      7  C9  non d ame      -8.030  10.051  64.950  0.00  0.00     0.092 C 
ATOM      8  H11 non d ame      -7.733  10.175  63.909  0.00  0.00     0.088 H 
BRANCH   7   9
ATOM      9  N3  non d ame      -9.204  10.902  65.169  0.00  0.00    -0.346 N 
ATOM     10  C7  non d ame     -10.084  11.213  64.070  0.00  0.00     0.240 C 
ATOM     11  O3  non d ame      -9.862  10.789  63.001  0.00  0.00    -0.271 OA
ATOM     12  H10 non d ame      -9.408  11.277  66.084  0.00  0.00     0.163 HD
BRANCH  10  13
ATOM     13  C6  non d ame     -11.330  12.122  64.308  0.00  0.00     0.086 C 
ATOM     14  H6  non d ame     -11.840  11.901  65.246  0.00  0.00     0.086 H 
BRANCH  13  15
ATOM     15  N2  non d ame     -10.894  13.506  64.387  0.00  0.00    -0.343 N 
ATOM     16  C5  non d ame     -11.601  14.434  65.274  0.00  0.00     0.273 C 
ATOM     17  O2  non d ame     -12.518  14.058  65.916  0.00  0.00    -0.266 OA
ATOM     18  H5  non d ame     -10.111  13.820  63.834  0.00  0.00     0.163 HD
BRANCH  16  19
ATOM     19  C4  non d ame     -11.150  15.900  65.370  0.00  0.00     0.154 A 
ATOM     20  C1  non d ame     -10.443  16.519  66.449  0.00  0.00    -0.017 A 
ATOM     21  C2  non d ame     -10.272  17.863  66.050  0.00  0.00     0.077 A 
ATOM     22  H1  non d ame     -10.105  16.062  67.380  0.00  0.00     0.091 H 
ATOM     23  O1  non d ame     -10.820  17.991  64.876  0.00  0.00    -0.218 OA
ATOM     24  N1  non d ame     -11.339  16.859  64.459  0.00  0.00    -0.123 NA
BRANCH  21  25
ATOM     25  C3  non d ame      -9.575  18.958  66.846  0.00  0.00    -0.029 C 
ATOM     26  H2  non d ame     -10.301  19.721  67.129  0.00  0.00     0.036 H 
ATOM     27  H3  non d ame      -9.132  18.528  67.744  0.00  0.00     0.036 H 
ATOM     28  H4  non d ame      -8.792  19.410  66.235  0.00  0.00     0.036 H 
ENDBRANCH  21  25
ENDBRANCH  16  19
ENDBRANCH  13  15
BRANCH  13  29
ATOM     29  C8  non d ame     -12.305  11.952  63.171  0.00  0.00    -0.049 C 
ATOM     30  H7  non d ame     -12.094  11.020  62.647  0.00  0.00     0.030 H 
ATOM     31  H8  non d ame     -13.322  11.926  63.565  0.00  0.00     0.030 H 
ATOM     32  H9  non d ame     -12.205  12.787  62.479  0.00  0.00     0.030 H 
ENDBRANCH  13  29
ENDBRANCH  10  13
ENDBRANCH   7   9
BRANCH   7  33
ATOM     33  C11 non d ame      -6.900  10.469  65.935  0.00  0.00    -0.033 C 
ATOM     34  H12 non d ame      -6.747   9.643  66.630  0.00  0.00     0.042 H 
BRANCH  33  35
ATOM     35  C12 non d ame      -5.552  10.706  65.186  0.00  0.00    -0.071 C 
ATOM     36  H13 non d ame      -5.604  11.644  64.632  0.00  0.00     0.028 H 
ATOM     37  H14 non d ame      -4.738  10.757  65.909  0.00  0.00     0.028 H 
ATOM     38  H15 non d ame      -5.372   9.884  64.494  0.00  0.00     0.028 H 
ENDBRANCH  33  35
BRANCH  33  39
ATOM     39  C13 non d ame      -7.316  11.727  66.764  0.00  0.00    -0.071 C 
ATOM     40  H16 non d ame      -7.919  12.388  66.142  0.00  0.00     0.028 H 
ATOM     41  H17 non d ame      -7.896  11.415  67.632  0.00  0.00     0.028 H 
ATOM     42  H18 non d ame      -6.422  12.255  67.095  0.00  0.00     0.028 H 
ENDBRANCH  33  39
ENDBRANCH   7  33
ENDBRANCH   4   7
ENDBRANCH   1   3
BRANCH   1  43
ATOM     43  C15 non d ame     -10.293   6.769  67.993  0.00  0.00     0.240 C 
ATOM     44  O5  non d ame     -11.155   5.951  68.026  0.00  0.00    -0.271 OA
ATOM     45  N6  non d ame     -10.151   7.741  69.114  0.00  0.00    -0.355 N 
ATOM     46  H46 non d ame      -9.420   8.438  69.100  0.00  0.00     0.162 HD
BRANCH  45  47
ATOM     47  C20 non d ame     -11.089   7.686  70.255  0.00  0.00     0.013 C 
ATOM     48  H30 non d ame     -12.013   7.225  69.907  0.00  0.00     0.072 H 
BRANCH  47  49
ATOM     49  C21 non d ame     -11.365   9.090  70.744  0.00  0.00    -0.038 C 
ATOM     50  H31 non d ame     -12.420   9.273  70.535  0.00  0.00     0.036 H 
ATOM     51  H32 non d ame     -10.999   9.121  71.771  0.00  0.00     0.036 H 
BRANCH  49  52
ATOM     52  C22 non d ame     -10.573  10.163  69.966  0.00  0.00     0.018 C 
ATOM     53  H33 non d ame     -10.496  11.019  70.638  0.00  0.00     0.048 H 
ATOM     54  H34 non d ame      -9.670   9.664  69.613  0.00  0.00     0.048 H 
BRANCH  52  55
ATOM     55  C23 non d ame     -11.303  10.681  68.696  0.00  0.00     0.259 C 
ATOM     56  O7  non d ame     -11.067  10.209  67.631  0.00  0.00    -0.265 OA
BRANCH  55  57
ATOM     57  O8  non d ame     -12.248  11.737  68.816  0.00  0.00    -0.317 OA
BRANCH  57  58
ATOM     58  C29 non d ame     -11.662  13.018  69.066  0.00  0.00     0.052 C 
ATOM     59  H47 non d ame     -10.617  12.824  69.305  0.00  0.00     0.082 H 
ATOM     60  H48 non d ame     -11.918  13.633  68.203  0.00  0.00     0.082 H 
BRANCH  58  61
ATOM     61  C35 non d ame     -12.349  13.622  70.320  0.00  0.00    -0.034 A 
ATOM     62  C30 non d ame     -12.355  14.999  70.515  0.00  0.00    -0.075 A 
ATOM     63  C31 non d ame     -12.972  15.542  71.641  0.00  0.00    -0.082 A 
ATOM     64  H49 non d ame     -11.877  15.653  69.787  0.00  0.00     0.084 H 
ATOM     65  C32 non d ame     -13.583  14.701  72.576  0.00  0.00    -0.083 A 
ATOM     66  H50 non d ame     -12.976  16.621  71.791  0.00  0.00     0.083 H 
ATOM     67  C33 non d ame     -13.572  13.327  72.379  0.00  0.00    -0.082 A 
ATOM     68  H51 non d ame     -14.067  15.117  73.459  0.00  0.00     0.083 H 
ATOM     69  C34 non d ame     -12.958  12.780  71.253  0.00  0.00    -0.075 A 
ATOM     70  H52 non d ame     -14.047  12.673  73.111  0.00  0.00     0.083 H 
ATOM     71  H53 non d ame     -12.954  11.699  71.104  0.00  0.00     0.084 H 
ENDBRANCH  58  61
ENDBRANCH  57  58
ENDBRANCH  55  57
ENDBRANCH  52  55
ENDBRANCH  49  52
ENDBRANCH  47  49
BRANCH  47  72
ATOM     72  C24 non d ame     -10.478   6.863  71.387  0.00  0.00    -0.039 C 
ATOM     73  H35 non d ame     -11.216   6.096  71.620  0.00  0.00     0.036 H 
ATOM     74  H36 non d ame      -9.487   6.576  71.035  0.00  0.00     0.036 H 
BRANCH  72  75
ATOM     75  C25 non d ame     -10.273   7.739  72.713  0.00  0.00    -0.001 C 
ATOM     76  C26 non d ame      -8.694   8.172  72.860  0.00  0.00    -0.035 C 
ATOM     77  C27 non d ame      -8.264   7.841  74.101  0.00  0.00     0.085 C 
ATOM     78  H38 non d ame      -8.076   7.557  72.206  0.00  0.00     0.036 H 
ATOM     79  H39 non d ame      -8.599   9.258  72.838  0.00  0.00     0.036 H 
ATOM     80  N5  non d ame      -9.307   6.930  74.702  0.00  0.00    -0.049 N 
ATOM     81  H40 non d ame      -7.343   7.277  73.952  0.00  0.00     0.075 H 
ATOM     82  H41 non d ame      -8.246   8.776  74.662  0.00  0.00     0.075 H 
ATOM     83  C28 non d ame     -10.616   7.077  73.768  0.00  0.00     0.193 C 
ATOM     84  H42 non d ame      -8.952   5.989  74.610  0.00  0.00     0.280 HD
ATOM     85  H43 non d ame      -9.521   7.302  75.616  0.00  0.00     0.280 HD
ATOM     86  H44 non d ame     -11.471   7.665  74.102  0.00  0.00     0.129 H 
ATOM     87  H37 non d ame     -11.015   8.532  72.802  0.00  0.00     0.046 H 
BRANCH  83  88
ATOM     88  O6  non d ame     -11.141   5.788  73.448  0.00  0.00    -0.369 OA
ATOM     89  H45 non d ame     -11.192   5.257  74.246  0.00  0.00     0.212 HD
ENDBRANCH  83  88
ENDBRANCH  72  75
ENDBRANCH  47  72
ENDBRANCH  45  47
ENDBRANCH   1  43
BRANCH   1  90
ATOM     90  C16 non d ame      -8.059   6.017  67.116  0.00  0.00    -0.035 C 
ATOM     91  H21 non d ame      -7.231   6.712  66.972  0.00  0.00     0.037 H 
ATOM     92  H22 non d ame      -8.242   5.585  68.099  0.00  0.00     0.037 H 
BRANCH  90  93
ATOM     93  C17 non d ame      -7.803   4.820  66.147  0.00  0.00    -0.059 C 
ATOM     94  H23 non d ame      -7.696   3.921  66.754  0.00  0.00     0.038 H 
BRANCH  93  95
ATOM     95  C18 non d ame      -8.995   4.591  65.163  0.00  0.00    -0.073 C 
ATOM     96  H24 non d ame      -9.886   5.085  65.552  0.00  0.00     0.028 H 
ATOM     97  H25 non d ame      -8.745   5.009  64.188  0.00  0.00     0.028 H 
ATOM     98  H26 non d ame      -9.184   3.523  65.063  0.00  0.00     0.028 H 
ENDBRANCH  93  95
BRANCH  93  99
ATOM     99  C19 non d ame      -6.491   5.008  65.380  0.00  0.00    -0.073 C 
ATOM    100  H27 non d ame      -6.659   5.672  64.532  0.00  0.00     0.028 H 
ATOM    101  H28 non d ame      -5.743   5.445  66.042  0.00  0.00     0.028 H 
ATOM    102  H29 non d ame      -6.139   4.042  65.020  0.00  0.00     0.028 H 
ENDBRANCH  93  99
ENDBRANCH  90  93
ENDBRANCH   1  90
TORSDOF 26
ENDMDL
MODEL 4
REMARK VINA RESULT:      -7.1      2.046      8.637
REMARK  26 active torsions:
REMARK  status: ('A' for Active; 'I' for Inactive)
REMARK    1  A    between atoms: C2_2  and  C3_3 
REMARK    2  A    between atoms: C4_6  and  C5_7 
REMARK       I    between atoms: C5_7  and  N2_9 
REMARK    3  A    between atoms: N2_9  and  C6_10 
REMARK    4  A    between atoms: C6_10  and  C7_11 
REMARK    5  A    between atoms: C6_10  and  C8_13 
REMARK       I    between atoms: C7_11  and  N3_14 
REMARK    6  A    between atoms: N3_14  and  C9_15 
REMARK    7  A    between atoms: C9_15  and  C10_16 
REMARK    8  A    between atoms: C9_15  and  C11_18 
REMARK       I    between atoms: C10_16  and  N4_21 
REMARK    9  A    between atoms: C11_18  and  C12_19 
REMARK   10  A    between atoms: C11_18  and  C13_20 
REMARK   11  A    between atoms: N4_21  and  C14_22 
REMARK   12  A    between atoms: C14_22  and  C15_23 
REMARK   13  A    between atoms: C14_22  and  C16_25 
REMARK       I    between atoms: C15_23  and  N6_40 
REMARK   14  A    between atoms: C16_25  and  C17_26 
REMARK   15  A    between atoms: C17_26  and  C18_27 
REMARK   16  A    between atoms: C17_26  and  C19_28 
REMARK   17  A    between atoms: C20_29  and  C21_30 
REMARK   18  A    between atoms: C20_29  and  C24_33 
REMARK   19  A    between atoms: C20_29  and  N6_40 
REMARK   20  A    between atoms: C21_30  and  C22_31 
REMARK   21  A    between atoms: C22_31  and  C23_32 
REMARK   22  A    between atoms: C23_32  and  O8_43 
REMARK   23  A    between atoms: C24_33  and  C25_34 
REMARK   24  A    between atoms: C28_38  and  O6_39 
REMARK   25  A    between atoms: C29_42  and  O8_43 
REMARK   26  A    between atoms: C29_42  and  C35_49 
ROOT
ATOM      1  C14 non d ame      -6.519  16.065  67.657  0.00  0.00     0.089 C 
ATOM      2  H20 non d ame      -5.931  16.600  66.911  0.00  0.00     0.087 H 
ENDROOT
BRANCH   1   3
ATOM      3  N4  non d ame      -7.922  16.216  67.302  0.00  0.00    -0.346 N 
ATOM      4  C10 non d ame      -8.352  17.295  66.341  0.00  0.00     0.241 C 
ATOM      5  O4  non d ame      -7.551  18.032  65.867  0.00  0.00    -0.271 OA
ATOM      6  H19 non d ame      -8.589  15.580  67.718  0.00  0.00     0.163 HD
BRANCH   4   7
ATOM      7  C9  non d ame      -9.808  17.434  65.980  0.00  0.00     0.092 C 
ATOM      8  H11 non d ame      -9.892  17.926  65.011  0.00  0.00     0.088 H 
BRANCH   7   9
ATOM      9  N3  non d ame     -10.407  16.103  65.843  0.00  0.00    -0.346 N 
ATOM     10  C7  non d ame     -11.276  15.814  64.729  0.00  0.00     0.240 C 
ATOM     11  O3  non d ame     -11.505  16.642  63.934  0.00  0.00    -0.271 OA
ATOM     12  H10 non d ame     -10.220  15.380  66.522  0.00  0.00     0.163 HD
BRANCH  10  13
ATOM     13  C6  non d ame     -11.913  14.397  64.591  0.00  0.00     0.086 C 
ATOM     14  H6  non d ame     -12.617  14.329  63.762  0.00  0.00     0.086 H 
BRANCH  13  15
ATOM     15  N2  non d ame     -10.860  13.431  64.322  0.00  0.00    -0.343 N 
ATOM     16  C5  non d ame     -11.190  12.175  63.646  0.00  0.00     0.273 C 
ATOM     17  O2  non d ame     -12.305  11.949  63.325  0.00  0.00    -0.266 OA
ATOM     18  H5  non d ame      -9.911  13.631  64.601  0.00  0.00     0.163 HD
BRANCH  16  19
ATOM     19  C4  non d ame     -10.087  11.146  63.352  0.00  0.00     0.154 A 
ATOM     20  C1  non d ame      -9.705  10.032  64.166  0.00  0.00    -0.017 A 
ATOM     21  C2  non d ame      -8.654   9.407  63.458  0.00  0.00     0.077 A 
ATOM     22  H1  non d ame     -10.124   9.725  65.125  0.00  0.00     0.091 H 
ATOM     23  O1  non d ame      -8.465  10.088  62.365  0.00  0.00    -0.218 OA
ATOM     24  N1  non d ame      -9.289  11.108  62.282  0.00  0.00    -0.123 NA
BRANCH  21  25
ATOM     25  C3  non d ame      -7.889   8.165  63.892  0.00  0.00    -0.029 C 
ATOM     26  H2  non d ame      -7.910   8.085  64.979  0.00  0.00     0.036 H 
ATOM     27  H3  non d ame      -8.352   7.281  63.454  0.00  0.00     0.036 H 
ATOM     28  H4  non d ame      -6.855   8.238  63.553  0.00  0.00     0.036 H 
ENDBRANCH  21  25
ENDBRANCH  16  19
ENDBRANCH  13  15
BRANCH  13  29
ATOM     29  C8  non d ame     -12.628  14.037  65.869  0.00  0.00    -0.049 C 
ATOM     30  H7  non d ame     -13.325  14.832  66.132  0.00  0.00     0.030 H 
ATOM     31  H8  non d ame     -13.177  13.105  65.727  0.00  0.00     0.030 H 
ATOM     32  H9  non d ame     -11.900  13.912  66.670  0.00  0.00     0.030 H 
ENDBRANCH  13  29
ENDBRANCH  10  13
ENDBRANCH   7   9
BRANCH   7  33
ATOM     33  C11 non d ame     -10.548  18.221  67.102  0.00  0.00    -0.033 C 
ATOM     34  H12 non d ame     -11.618  18.113  66.927  0.00  0.00     0.042 H 
BRANCH  33  35
ATOM     35  C12 non d ame     -10.241  17.625  68.511  0.00  0.00    -0.071 C 
ATOM     36  H13 non d ame     -10.091  16.549  68.426  0.00  0.00     0.028 H 
ATOM     37  H14 non d ame      -9.338  18.086  68.912  0.00  0.00     0.028 H 
ATOM     38  H15 non d ame     -11.078  17.825  69.179  0.00  0.00     0.028 H 
ENDBRANCH  33  35
BRANCH  33  39
ATOM     39  C13 non d ame     -10.198  19.742  67.041  0.00  0.00    -0.071 C 
ATOM     40  H16 non d ame     -10.458  20.136  66.059  0.00  0.00     0.028 H 
ATOM     41  H17 non d ame     -10.760  20.275  67.808  0.00  0.00     0.028 H 
ATOM     42  H18 non d ame      -9.130  19.875  67.214  0.00  0.00     0.028 H 
ENDBRANCH  33  39
ENDBRANCH   7  33
ENDBRANCH   4   7
ENDBRANCH   1   3
BRANCH   1  43
ATOM     43  C15 non d ame      -6.178  14.547  67.695  0.00  0.00     0.240 C 
ATOM     44  O5  non d ame      -5.085  14.179  67.405  0.00  0.00    -0.271 OA
ATOM     45  N6  non d ame      -7.212  13.553  68.100  0.00  0.00    -0.355 N 
ATOM     46  H46 non d ame      -8.143  13.853  68.353  0.00  0.00     0.162 HD
BRANCH  45  47
ATOM     47  C20 non d ame      -6.872  12.114  68.133  0.00  0.00     0.013 C 
ATOM     48  H30 non d ame      -5.939  11.978  67.587  0.00  0.00     0.072 H 
BRANCH  47  49
ATOM     49  C21 non d ame      -7.978  11.324  67.469  0.00  0.00    -0.038 C 
ATOM     50  H31 non d ame      -7.552  10.943  66.540  0.00  0.00     0.036 H 
ATOM     51  H32 non d ame      -8.339  10.629  68.228  0.00  0.00     0.036 H 
BRANCH  49  52
ATOM     52  C22 non d ame      -9.185  12.200  67.070  0.00  0.00     0.018 C 
ATOM     53  H33 non d ame      -8.888  13.227  67.285  0.00  0.00     0.048 H 
ATOM     54  H34 non d ame      -9.438  11.908  66.051  0.00  0.00     0.048 H 
BRANCH  52  55
ATOM     55  C23 non d ame     -10.458  11.935  67.921  0.00  0.00     0.259 C 
ATOM     56  O7  non d ame     -11.106  10.955  67.747  0.00  0.00    -0.265 OA
BRANCH  55  57
ATOM     57  O8  non d ame     -10.849  12.886  68.904  0.00  0.00    -0.317 OA
BRANCH  57  58
ATOM     58  C29 non d ame     -11.935  12.457  69.731  0.00  0.00     0.052 C 
ATOM     59  H47 non d ame     -12.779  12.310  69.057  0.00  0.00     0.082 H 
ATOM     60  H48 non d ame     -11.550  11.618  70.311  0.00  0.00     0.082 H 
BRANCH  58  61
ATOM     61  C35 non d ame     -12.280  13.613  70.707  0.00  0.00    -0.034 A 
ATOM     62  C30 non d ame     -11.693  14.862  70.541  0.00  0.00    -0.075 A 
ATOM     63  C31 non d ame     -12.002  15.901  71.418  0.00  0.00    -0.082 A 
ATOM     64  H49 non d ame     -10.991  15.028  69.725  0.00  0.00     0.084 H 
ATOM     65  C32 non d ame     -12.902  15.685  72.466  0.00  0.00    -0.083 A 
ATOM     66  H50 non d ame     -11.542  16.879  71.285  0.00  0.00     0.083 H 
ATOM     67  C33 non d ame     -13.483  14.435  72.629  0.00  0.00    -0.082 A 
ATOM     68  H51 non d ame     -13.149  16.491  73.156  0.00  0.00     0.083 H 
ATOM     69  C34 non d ame     -13.178  13.395  71.753  0.00  0.00    -0.075 A 
ATOM     70  H52 non d ame     -14.183  14.269  73.449  0.00  0.00     0.083 H 
ATOM     71  H53 non d ame     -13.640  12.416  71.888  0.00  0.00     0.084 H 
ENDBRANCH  58  61
ENDBRANCH  57  58
ENDBRANCH  55  57
ENDBRANCH  52  55
ENDBRANCH  49  52
ENDBRANCH  47  49
BRANCH  47  72
ATOM     72  C24 non d ame      -6.714  11.653  69.579  0.00  0.00    -0.039 C 
ATOM     73  H35 non d ame      -7.312  12.345  70.172  0.00  0.00     0.036 H 
ATOM     74  H36 non d ame      -6.956  10.590  69.574  0.00  0.00     0.036 H 
BRANCH  72  75
ATOM     75  C25 non d ame      -5.198  11.789  70.082  0.00  0.00    -0.001 C 
ATOM     76  C26 non d ame      -4.721  10.395  70.810  0.00  0.00    -0.035 C 
ATOM     77  C27 non d ame      -4.197  10.692  72.023  0.00  0.00     0.085 C 
ATOM     78  H38 non d ame      -5.591   9.783  71.052  0.00  0.00     0.036 H 
ATOM     79  H39 non d ame      -3.881   9.958  70.269  0.00  0.00     0.036 H 
ATOM     80  N5  non d ame      -4.569  12.123  72.326  0.00  0.00    -0.049 N 
ATOM     81  H40 non d ame      -4.705  10.035  72.730  0.00  0.00     0.075 H 
ATOM     82  H41 non d ame      -3.116  10.626  71.897  0.00  0.00     0.075 H 
ATOM     83  C28 non d ame      -5.073  12.757  70.929  0.00  0.00     0.193 C 
ATOM     84  H42 non d ame      -5.353  12.086  72.963  0.00  0.00     0.280 HD
ATOM     85  H43 non d ame      -3.717  12.589  72.602  0.00  0.00     0.280 HD
ATOM     86  H44 non d ame      -4.430  13.433  70.364  0.00  0.00     0.129 H 
ATOM     87  H37 non d ame      -4.543  12.196  69.312  0.00  0.00     0.046 H 
BRANCH  83  88
ATOM     88  O6  non d ame      -6.296  13.467  71.123  0.00  0.00    -0.369 OA
ATOM     89  H45 non d ame      -6.549  13.422  72.047  0.00  0.00     0.212 HD
ENDBRANCH  83  88
ENDBRANCH  72  75
ENDBRANCH  47  72
ENDBRANCH  45  47
ENDBRANCH   1  43
BRANCH   1  90
ATOM     90  C16 non d ame      -6.285  16.675  69.030  0.00  0.00    -0.035 C 
ATOM     91  H21 non d ame      -7.272  16.738  69.490  0.00  0.00     0.037 H 
ATOM     92  H22 non d ame      -5.509  16.064  69.489  0.00  0.00     0.037 H 
BRANCH  90  93
ATOM     93  C17 non d ame      -5.728  18.133  68.981  0.00  0.00    -0.059 C 
ATOM     94  H23 non d ame      -5.279  18.282  67.999  0.00  0.00     0.038 H 
BRANCH  93  95
ATOM     95  C18 non d ame      -6.854  19.201  69.158  0.00  0.00    -0.073 C 
ATOM     96  H24 non d ame      -7.062  19.672  68.196  0.00  0.00     0.028 H 
ATOM     97  H25 non d ame      -7.758  18.718  69.529  0.00  0.00     0.028 H 
ATOM     98  H26 non d ame      -6.528  19.958  69.871  0.00  0.00     0.028 H 
ENDBRANCH  93  95
BRANCH  93  99
ATOM     99  C19 non d ame      -4.621  18.330  70.021  0.00  0.00    -0.073 C 
ATOM    100  H27 non d ame      -5.067  18.429  71.010  0.00  0.00     0.028 H 
ATOM    101  H28 non d ame      -3.952  17.470  70.007  0.00  0.00     0.028 H 
ATOM    102  H29 non d ame      -4.058  19.233  69.784  0.00  0.00     0.028 H 
ENDBRANCH  93  99
ENDBRANCH  90  93
ENDBRANCH   1  90
TORSDOF 26
ENDMDL
MODEL 5
REMARK VINA RESULT:      -7.0      2.200      7.814
REMARK  26 active torsions:
REMARK  status: ('A' for Active; 'I' for Inactive)
REMARK    1  A    between atoms: C2_2  and  C3_3 
REMARK    2  A    between atoms: C4_6  and  C5_7 
REMARK       I    between atoms: C5_7  and  N2_9 
REMARK    3  A    between atoms: N2_9  and  C6_10 
REMARK    4  A    between atoms: C6_10  and  C7_11 
REMARK    5  A    between atoms: C6_10  and  C8_13 
REMARK       I    between atoms: C7_11  and  N3_14 
REMARK    6  A    between atoms: N3_14  and  C9_15 
REMARK    7  A    between atoms: C9_15  and  C10_16 
REMARK    8  A    between atoms: C9_15  and  C11_18 
REMARK       I    between atoms: C10_16  and  N4_21 
REMARK    9  A    between atoms: C11_18  and  C12_19 
REMARK   10  A    between atoms: C11_18  and  C13_20 
REMARK   11  A    between atoms: N4_21  and  C14_22 
REMARK   12  A    between atoms: C14_22  and  C15_23 
REMARK   13  A    between atoms: C14_22  and  C16_25 
REMARK       I    between atoms: C15_23  and  N6_40 
REMARK   14  A    between atoms: C16_25  and  C17_26 
REMARK   15  A    between atoms: C17_26  and  C18_27 
REMARK   16  A    between atoms: C17_26  and  C19_28 
REMARK   17  A    between atoms: C20_29  and  C21_30 
REMARK   18  A    between atoms: C20_29  and  C24_33 
REMARK   19  A    between atoms: C20_29  and  N6_40 
REMARK   20  A    between atoms: C21_30  and  C22_31 
REMARK   21  A    between atoms: C22_31  and  C23_32 
REMARK   22  A    between atoms: C23_32  and  O8_43 
REMARK   23  A    between atoms: C24_33  and  C25_34 
REMARK   24  A    between atoms: C28_38  and  O6_39 
REMARK   25  A    between atoms: C29_42  and  O8_43 
REMARK   26  A    between atoms: C29_42  and  C35_49 
ROOT
ATOM      1  C14 non d ame      -6.594  13.769  68.124  0.00  0.00     0.089 C 
ATOM      2  H20 non d ame      -5.857  13.688  67.325  0.00  0.00     0.087 H 
ENDROOT
BRANCH   1   3
ATOM      3  N4  non d ame      -6.901  15.180  68.298  0.00  0.00    -0.346 N 
ATOM      4  C10 non d ame      -6.073  16.231  67.601  0.00  0.00     0.241 C 
ATOM      5  O4  non d ame      -5.163  15.915  66.907  0.00  0.00    -0.271 OA
ATOM      6  H19 non d ame      -7.678  15.428  68.895  0.00  0.00     0.163 HD
BRANCH   4   7
ATOM      7  C9  non d ame      -6.407  17.687  67.788  0.00  0.00     0.092 C 
ATOM      8  H11 non d ame      -6.089  18.245  66.907  0.00  0.00     0.088 H 
BRANCH   7   9
ATOM      9  N3  non d ame      -7.860  17.846  67.897  0.00  0.00    -0.346 N 
ATOM     10  C7  non d ame      -8.666  17.956  66.707  0.00  0.00     0.240 C 
ATOM     11  O3  non d ame      -8.160  17.922  65.651  0.00  0.00    -0.271 OA
ATOM     12  H10 non d ame      -8.310  17.879  68.801  0.00  0.00     0.163 HD
BRANCH  10  13
ATOM     13  C6  non d ame     -10.211  18.128  66.830  0.00  0.00     0.086 C 
ATOM     14  H6  non d ame     -10.759  17.580  66.063  0.00  0.00     0.086 H 
BRANCH  13  15
ATOM     15  N2  non d ame     -10.644  17.594  68.111  0.00  0.00    -0.343 N 
ATOM     16  C5  non d ame     -11.116  16.210  68.193  0.00  0.00     0.273 C 
ATOM     17  O2  non d ame     -11.146  15.536  67.223  0.00  0.00    -0.266 OA
ATOM     18  H5  non d ame     -10.617  18.178  68.934  0.00  0.00     0.163 HD
BRANCH  16  19
ATOM     19  C4  non d ame     -11.574  15.631  69.541  0.00  0.00     0.154 A 
ATOM     20  C1  non d ame     -12.295  14.415  69.759  0.00  0.00    -0.017 A 
ATOM     21  C2  non d ame     -12.468  14.340  71.160  0.00  0.00     0.077 A 
ATOM     22  H1  non d ame     -12.640  13.696  69.016  0.00  0.00     0.091 H 
ATOM     23  O1  non d ame     -11.906  15.395  71.676  0.00  0.00    -0.218 OA
ATOM     24  N1  non d ame     -11.378  16.164  70.751  0.00  0.00    -0.123 NA
BRANCH  21  25
ATOM     25  C3  non d ame     -13.177  13.230  71.923  0.00  0.00    -0.029 C 
ATOM     26  H2  non d ame     -14.254  13.311  71.767  0.00  0.00     0.036 H 
ATOM     27  H3  non d ame     -12.829  12.262  71.562  0.00  0.00     0.036 H 
ATOM     28  H4  non d ame     -12.957  13.321  72.987  0.00  0.00     0.036 H 
ENDBRANCH  21  25
ENDBRANCH  16  19
ENDBRANCH  13  15
BRANCH  13  29
ATOM     29  C8  non d ame     -10.567  19.589  66.733  0.00  0.00    -0.049 C 
ATOM     30  H7  non d ame     -11.484  19.703  66.154  0.00  0.00     0.030 H 
ATOM     31  H8  non d ame     -10.719  19.993  67.736  0.00  0.00     0.030 H 
ATOM     32  H9  non d ame      -9.759  20.129  66.243  0.00  0.00     0.030 H 
ENDBRANCH  13  29
ENDBRANCH  10  13
ENDBRANCH   7   9
BRANCH   7  33
ATOM     33  C11 non d ame      -5.731  18.213  69.089  0.00  0.00    -0.033 C 
ATOM     34  H12 non d ame      -5.827  17.434  69.846  0.00  0.00     0.042 H 
BRANCH  33  35
ATOM     35  C12 non d ame      -4.208  18.472  68.873  0.00  0.00    -0.071 C 
ATOM     36  H13 non d ame      -3.635  17.896  69.600  0.00  0.00     0.028 H 
ATOM     37  H14 non d ame      -3.926  18.167  67.865  0.00  0.00     0.028 H 
ATOM     38  H15 non d ame      -3.999  19.534  69.002  0.00  0.00     0.028 H 
ENDBRANCH  33  35
BRANCH  33  39
ATOM     39  C13 non d ame      -6.455  19.492  69.617  0.00  0.00    -0.071 C 
ATOM     40  H16 non d ame      -7.513  19.278  69.760  0.00  0.00     0.028 H 
ATOM     41  H17 non d ame      -6.013  19.795  70.567  0.00  0.00     0.028 H 
ATOM     42  H18 non d ame      -6.342  20.298  68.891  0.00  0.00     0.028 H 
ENDBRANCH  33  39
ENDBRANCH   7  33
ENDBRANCH   4   7
ENDBRANCH   1   3
BRANCH   1  43
ATOM     43  C15 non d ame      -7.912  13.014  67.786  0.00  0.00     0.240 C 
ATOM     44  O5  non d ame      -8.924  13.319  68.330  0.00  0.00    -0.271 OA
ATOM     45  N6  non d ame      -7.915  11.916  66.778  0.00  0.00    -0.355 N 
ATOM     46  H46 non d ame      -7.062  11.650  66.306  0.00  0.00     0.162 HD
BRANCH  45  47
ATOM     47  C20 non d ame      -9.176  11.209  66.467  0.00  0.00     0.013 C 
ATOM     48  H30 non d ame      -9.998  11.794  66.880  0.00  0.00     0.072 H 
BRANCH  47  49
ATOM     49  C21 non d ame      -9.150   9.837  67.102  0.00  0.00    -0.038 C 
ATOM     50  H31 non d ame      -8.881   9.147  66.301  0.00  0.00     0.036 H 
ATOM     51  H32 non d ame      -8.509   9.931  67.979  0.00  0.00     0.036 H 
BRANCH  49  52
ATOM     52  C22 non d ame     -10.534   9.389  67.619  0.00  0.00     0.018 C 
ATOM     53  H33 non d ame     -11.179   9.346  66.741  0.00  0.00     0.048 H 
ATOM     54  H34 non d ame     -10.352   8.489  68.207  0.00  0.00     0.048 H 
BRANCH  52  55
ATOM     55  C23 non d ame     -11.199  10.407  68.587  0.00  0.00     0.259 C 
ATOM     56  O7  non d ame     -12.186  10.985  68.268  0.00  0.00    -0.265 OA
BRANCH  55  57
ATOM     57  O8  non d ame     -10.606  10.652  69.857  0.00  0.00    -0.317 OA
BRANCH  57  58
ATOM     58  C29 non d ame     -10.324   9.467  70.607  0.00  0.00     0.052 C 
ATOM     59  H47 non d ame      -9.873   8.770  69.902  0.00  0.00     0.082 H 
ATOM     60  H48 non d ame      -9.763   9.798  71.481  0.00  0.00     0.082 H 
BRANCH  58  61
ATOM     61  C35 non d ame     -11.675   8.872  71.089  0.00  0.00    -0.034 A 
ATOM     62  C30 non d ame     -11.937   7.516  70.924  0.00  0.00    -0.075 A 
ATOM     63  C31 non d ame     -13.150   6.982  71.357  0.00  0.00    -0.082 A 
ATOM     64  H49 non d ame     -11.193   6.872  70.457  0.00  0.00     0.084 H 
ATOM     65  C32 non d ame     -14.104   7.811  71.953  0.00  0.00    -0.083 A 
ATOM     66  H50 non d ame     -13.351   5.919  71.228  0.00  0.00     0.083 H 
ATOM     67  C33 non d ame     -13.840   9.165  72.112  0.00  0.00    -0.082 A 
ATOM     68  H51 non d ame     -15.055   7.402  72.294  0.00  0.00     0.083 H 
ATOM     69  C34 non d ame     -12.627   9.702  71.684  0.00  0.00    -0.075 A 
ATOM     70  H52 non d ame     -14.587   9.809  72.576  0.00  0.00     0.083 H 
ATOM     71  H53 non d ame     -12.426  10.766  71.813  0.00  0.00     0.084 H 
ENDBRANCH  58  61
ENDBRANCH  57  58
ENDBRANCH  55  57
ENDBRANCH  52  55
ENDBRANCH  49  52
ENDBRANCH  47  49
BRANCH  47  72
ATOM     72  C24 non d ame      -9.330  11.069  64.955  0.00  0.00    -0.039 C 
ATOM     73  H35 non d ame      -8.324  11.174  64.549  0.00  0.00     0.036 H 
ATOM     74  H36 non d ame      -9.884  10.142  64.804  0.00  0.00     0.036 H 
BRANCH  72  75
ATOM     75  C25 non d ame     -10.215  12.254  64.337  0.00  0.00    -0.001 C 
ATOM     76  C26 non d ame     -11.457  12.614  65.352  0.00  0.00    -0.035 C 
ATOM     77  C27 non d ame     -12.614  12.603  64.649  0.00  0.00     0.085 C 
ATOM     78  H38 non d ame     -11.592  11.811  66.077  0.00  0.00     0.036 H 
ATOM     79  H39 non d ame     -11.375  13.647  65.692  0.00  0.00     0.036 H 
ATOM     80  N5  non d ame     -12.316  11.950  63.320  0.00  0.00    -0.049 N 
ATOM     81  H40 non d ame     -13.293  11.965  65.214  0.00  0.00     0.075 H 
ATOM     82  H41 non d ame     -12.862  13.651  64.480  0.00  0.00     0.075 H 
ATOM     83  C28 non d ame     -10.707  11.920  63.190  0.00  0.00     0.193 C 
ATOM     84  H42 non d ame     -12.650  10.999  63.388  0.00  0.00     0.280 HD
ATOM     85  H43 non d ame     -12.685  12.565  62.610  0.00  0.00     0.280 HD
ATOM     86  H44 non d ame     -10.191  12.627  62.540  0.00  0.00     0.129 H 
ATOM     87  H37 non d ame      -9.604  13.085  63.986  0.00  0.00     0.046 H 
BRANCH  83  88
ATOM     88  O6  non d ame     -10.271  10.626  62.772  0.00  0.00    -0.369 OA
ATOM     89  H45 non d ame     -10.755   9.954  63.255  0.00  0.00     0.212 HD
ENDBRANCH  83  88
ENDBRANCH  72  75
ENDBRANCH  47  72
ENDBRANCH  45  47
ENDBRANCH   1  43
BRANCH   1  90
ATOM     90  C16 non d ame      -6.010  13.223  69.418  0.00  0.00    -0.035 C 
ATOM     91  H21 non d ame      -6.681  13.569  70.205  0.00  0.00     0.037 H 
ATOM     92  H22 non d ame      -5.876  12.156  69.247  0.00  0.00     0.037 H 
BRANCH  90  93
ATOM     93  C17 non d ame      -4.599  13.798  69.759  0.00  0.00    -0.059 C 
ATOM     94  H23 non d ame      -4.258  14.370  68.897  0.00  0.00     0.038 H 
BRANCH  93  95
ATOM     95  C18 non d ame      -4.634  14.761  70.988  0.00  0.00    -0.073 C 
ATOM     96  H24 non d ame      -5.641  15.162  71.106  0.00  0.00     0.028 H 
ATOM     97  H25 non d ame      -4.354  14.213  71.887  0.00  0.00     0.028 H 
ATOM     98  H26 non d ame      -3.933  15.580  70.829  0.00  0.00     0.028 H 
ENDBRANCH  93  95
BRANCH  93  99
ATOM     99  C19 non d ame      -3.589  12.668  69.981  0.00  0.00    -0.073 C 
ATOM    100  H27 non d ame      -4.112  11.777  70.329  0.00  0.00     0.028 H 
ATOM    101  H28 non d ame      -3.079  12.447  69.043  0.00  0.00     0.028 H 
ATOM    102  H29 non d ame      -2.859  12.976  70.729  0.00  0.00     0.028 H 
ENDBRANCH  93  99
ENDBRANCH  90  93
ENDBRANCH   1  90
TORSDOF 26
ENDMDL
MODEL 6
REMARK VINA RESULT:      -6.9      2.393      6.136
REMARK  26 active torsions:
REMARK  status: ('A' for Active; 'I' for Inactive)
REMARK    1  A    between atoms: C2_2  and  C3_3 
REMARK    2  A    between atoms: C4_6  and  C5_7 
REMARK       I    between atoms: C5_7  and  N2_9 
REMARK    3  A    between atoms: N2_9  and  C6_10 
REMARK    4  A    between atoms: C6_10  and  C7_11 
REMARK    5  A    between atoms: C6_10  and  C8_13 
REMARK       I    between atoms: C7_11  and  N3_14 
REMARK    6  A    between atoms: N3_14  and  C9_15 
REMARK    7  A    between atoms: C9_15  and  C10_16 
REMARK    8  A    between atoms: C9_15  and  C11_18 
REMARK       I    between atoms: C10_16  and  N4_21 
REMARK    9  A    between atoms: C11_18  and  C12_19 
REMARK   10  A    between atoms: C11_18  and  C13_20 
REMARK   11  A    between atoms: N4_21  and  C14_22 
REMARK   12  A    between atoms: C14_22  and  C15_23 
REMARK   13  A    between atoms: C14_22  and  C16_25 
REMARK       I    between atoms: C15_23  and  N6_40 
REMARK   14  A    between atoms: C16_25  and  C17_26 
REMARK   15  A    between atoms: C17_26  and  C18_27 
REMARK   16  A    between atoms: C17_26  and  C19_28 
REMARK   17  A    between atoms: C20_29  and  C21_30 
REMARK   18  A    between atoms: C20_29  and  C24_33 
REMARK   19  A    between atoms: C20_29  and  N6_40 
REMARK   20  A    between atoms: C21_30  and  C22_31 
REMARK   21  A    between atoms: C22_31  and  C23_32 
REMARK   22  A    between atoms: C23_32  and  O8_43 
REMARK   23  A    between atoms: C24_33  and  C25_34 
REMARK   24  A    between atoms: C28_38  and  O6_39 
REMARK   25  A    between atoms: C29_42  and  O8_43 
REMARK   26  A    between atoms: C29_42  and  C35_49 
ROOT
ATOM      1  C14 non d ame     -12.015  14.031  69.639  0.00  0.00     0.089 C 
ATOM      2  H20 non d ame     -12.919  13.820  69.069  0.00  0.00     0.087 H 
ENDROOT
BRANCH   1   3
ATOM      3  N4  non d ame     -11.534  12.770  70.182  0.00  0.00    -0.346 N 
ATOM      4  C10 non d ame     -11.683  11.494  69.391  0.00  0.00     0.241 C 
ATOM      5  O4  non d ame     -12.196  11.508  68.320  0.00  0.00    -0.271 OA
ATOM      6  H19 non d ame     -11.102  12.779  71.096  0.00  0.00     0.163 HD
BRANCH   4   7
ATOM      7  C9  non d ame     -11.175  10.198  69.965  0.00  0.00     0.092 C 
ATOM      8  H11 non d ame     -11.344   9.396  69.246  0.00  0.00     0.088 H 
BRANCH   7   9
ATOM      9  N3  non d ame      -9.727  10.291  70.175  0.00  0.00    -0.346 N 
ATOM     10  C7  non d ame      -8.820  10.004  69.091  0.00  0.00     0.240 C 
ATOM     11  O3  non d ame      -9.239   9.695  68.042  0.00  0.00    -0.271 OA
ATOM     12  H10 non d ame      -9.351  10.554  71.075  0.00  0.00     0.163 HD
BRANCH  10  13
ATOM     13  C6  non d ame      -7.281  10.101  69.322  0.00  0.00     0.086 C 
ATOM     14  H6  non d ame      -6.704   9.863  68.429  0.00  0.00     0.086 H 
BRANCH  13  15
ATOM     15  N2  non d ame      -6.944  11.468  69.683  0.00  0.00    -0.343 N 
ATOM     16  C5  non d ame      -6.544  12.412  68.636  0.00  0.00     0.273 C 
ATOM     17  O2  non d ame      -6.495  12.061  67.509  0.00  0.00    -0.266 OA
ATOM     18  H5  non d ame      -6.987  11.760  70.649  0.00  0.00     0.163 HD
BRANCH  16  19
ATOM     19  C4  non d ame      -6.188  13.862  69.003  0.00  0.00     0.154 A 
ATOM     20  C1  non d ame      -5.416  14.784  68.227  0.00  0.00    -0.017 A 
ATOM     21  C2  non d ame      -5.380  15.967  68.999  0.00  0.00     0.077 A 
ATOM     22  H1  non d ame      -4.953  14.621  67.253  0.00  0.00     0.091 H 
ATOM     23  O1  non d ame      -6.056  15.740  70.087  0.00  0.00    -0.218 OA
ATOM     24  N1  non d ame      -6.537  14.518  70.112  0.00  0.00    -0.123 NA
BRANCH  21  25
ATOM     25  C3  non d ame      -4.682  17.267  68.624  0.00  0.00    -0.029 C 
ATOM     26  H2  non d ame      -5.343  18.109  68.832  0.00  0.00     0.036 H 
ATOM     27  H3  non d ame      -3.768  17.370  69.209  0.00  0.00     0.036 H 
ATOM     28  H4  non d ame      -4.433  17.254  67.562  0.00  0.00     0.036 H 
ENDBRANCH  21  25
ENDBRANCH  16  19
ENDBRANCH  13  15
BRANCH  13  29
ATOM     29  C8  non d ame      -6.875   9.161  70.429  0.00  0.00    -0.049 C 
ATOM     30  H7  non d ame      -7.274   8.167  70.226  0.00  0.00     0.030 H 
ATOM     31  H8  non d ame      -5.787   9.112  70.483  0.00  0.00     0.030 H 
ATOM     32  H9  non d ame      -7.270   9.524  71.377  0.00  0.00     0.030 H 
ENDBRANCH  13  29
ENDBRANCH  10  13
ENDBRANCH   7   9
BRANCH   7  33
ATOM     33  C11 non d ame     -11.878   9.922  71.326  0.00  0.00    -0.033 C 
ATOM     34  H12 non d ame     -11.661  10.764  71.984  0.00  0.00     0.042 H 
BRANCH  33  35
ATOM     35  C12 non d ame     -13.427   9.843  71.160  0.00  0.00    -0.071 C 
ATOM     36  H13 non d ame     -13.897   9.830  72.143  0.00  0.00     0.028 H 
ATOM     37  H14 non d ame     -13.778  10.712  70.602  0.00  0.00     0.028 H 
ATOM     38  H15 non d ame     -13.688   8.935  70.618  0.00  0.00     0.028 H 
ENDBRANCH  33  35
BRANCH  33  39
ATOM     39  C13 non d ame     -11.313   8.628  71.995  0.00  0.00    -0.071 C 
ATOM     40  H16 non d ame     -11.719   8.532  73.001  0.00  0.00     0.028 H 
ATOM     41  H17 non d ame     -11.598   7.758  71.402  0.00  0.00     0.028 H 
ATOM     42  H18 non d ame     -10.226   8.692  72.046  0.00  0.00     0.028 H 
ENDBRANCH  33  39
ENDBRANCH   7  33
ENDBRANCH   4   7
ENDBRANCH   1   3
BRANCH   1  43
ATOM     43  C15 non d ame     -10.894  14.650  68.756  0.00  0.00     0.240 C 
ATOM     44  O5  non d ame      -9.768  14.290  68.891  0.00  0.00    -0.271 OA
ATOM     45  N6  non d ame     -11.223  15.685  67.735  0.00  0.00    -0.355 N 
ATOM     46  H46 non d ame     -12.175  15.996  67.609  0.00  0.00     0.162 HD
BRANCH  45  47
ATOM     47  C20 non d ame     -10.146  16.263  66.903  0.00  0.00     0.013 C 
ATOM     48  H30 non d ame      -9.194  16.040  67.385  0.00  0.00     0.072 H 
BRANCH  47  49
ATOM     49  C21 non d ame     -10.337  17.759  66.804  0.00  0.00    -0.038 C 
ATOM     50  H31 non d ame     -10.969  17.919  65.930  0.00  0.00     0.036 H 
ATOM     51  H32 non d ame     -10.679  18.077  67.790  0.00  0.00     0.036 H 
BRANCH  49  52
ATOM     52  C22 non d ame      -9.019  18.516  66.536  0.00  0.00     0.018 C 
ATOM     53  H33 non d ame      -8.225  17.871  66.915  0.00  0.00     0.048 H 
ATOM     54  H34 non d ame      -9.043  18.786  65.480  0.00  0.00     0.048 H 
BRANCH  52  55
ATOM     55  C23 non d ame      -8.894  19.853  67.318  0.00  0.00     0.259 C 
ATOM     56  O7  non d ame      -9.781  20.643  67.306  0.00  0.00    -0.265 OA
BRANCH  55  57
ATOM     57  O8  non d ame      -7.700  20.129  68.041  0.00  0.00    -0.317 OA
BRANCH  57  58
ATOM     58  C29 non d ame      -6.721  20.855  67.292  0.00  0.00     0.052 C 
ATOM     59  H47 non d ame      -6.554  20.277  66.385  0.00  0.00     0.082 H 
ATOM     60  H48 non d ame      -7.097  21.876  67.226  0.00  0.00     0.082 H 
BRANCH  58  61
ATOM     61  C35 non d ame      -5.405  20.870  68.115  0.00  0.00    -0.034 A 
ATOM     62  C30 non d ame      -5.452  20.893  69.504  0.00  0.00    -0.075 A 
ATOM     63  C31 non d ame      -4.270  20.906  70.243  0.00  0.00    -0.082 A 
ATOM     64  H49 non d ame      -6.414  20.900  70.015  0.00  0.00     0.084 H 
ATOM     65  C32 non d ame      -3.037  20.900  69.586  0.00  0.00    -0.083 A 
ATOM     66  H50 non d ame      -4.311  20.922  71.332  0.00  0.00     0.083 H 
ATOM     67  C33 non d ame      -2.994  20.881  68.199  0.00  0.00    -0.082 A 
ATOM     68  H51 non d ame      -2.107  20.910  70.156  0.00  0.00     0.083 H 
ATOM     69  C34 non d ame      -4.173  20.864  67.457  0.00  0.00    -0.075 A 
ATOM     70  H52 non d ame      -2.030  20.878  67.689  0.00  0.00     0.083 H 
ATOM     71  H53 non d ame      -4.131  20.848  66.367  0.00  0.00     0.084 H 
ENDBRANCH  58  61
ENDBRANCH  57  58
ENDBRANCH  55  57
ENDBRANCH  52  55
ENDBRANCH  49  52
ENDBRANCH  47  49
BRANCH  47  72
ATOM     72  C24 non d ame     -10.189  15.650  65.505  0.00  0.00    -0.039 C 
ATOM     73  H35 non d ame     -10.347  16.487  64.825  0.00  0.00     0.036 H 
ATOM     74  H36 non d ame      -9.284  15.046  65.425  0.00  0.00     0.036 H 
BRANCH  72  75
ATOM     75  C25 non d ame     -11.435  14.658  65.331  0.00  0.00    -0.001 C 
ATOM     76  C26 non d ame     -10.901  13.128  65.055  0.00  0.00    -0.035 C 
ATOM     77  C27 non d ame     -11.519  12.642  63.952  0.00  0.00     0.085 C 
ATOM     78  H38 non d ame      -9.849  13.146  64.770  0.00  0.00     0.036 H 
ATOM     79  H39 non d ame     -11.238  12.464  65.851  0.00  0.00     0.036 H 
ATOM     80  N5  non d ame     -12.180  13.812  63.264  0.00  0.00    -0.049 N 
ATOM     81  H40 non d ame     -10.721  12.259  63.315  0.00  0.00     0.075 H 
ATOM     82  H41 non d ame     -12.290  11.968  64.325  0.00  0.00     0.075 H 
ATOM     83  C28 non d ame     -12.182  15.016  64.340  0.00  0.00     0.193 C 
ATOM     84  H42 non d ame     -11.577  14.069  62.495  0.00  0.00     0.280 HD
ATOM     85  H43 non d ame     -13.135  13.538  63.087  0.00  0.00     0.280 HD
ATOM     86  H44 non d ame     -13.097  15.285  64.868  0.00  0.00     0.129 H 
ATOM     87  H37 non d ame     -12.179  14.789  66.116  0.00  0.00     0.046 H 
BRANCH  83  88
ATOM     88  O6  non d ame     -11.725  16.223  63.728  0.00  0.00    -0.369 OA
ATOM     89  H45 non d ame     -10.768  16.203  63.657  0.00  0.00     0.212 HD
ENDBRANCH  83  88
ENDBRANCH  72  75
ENDBRANCH  47  72
ENDBRANCH  45  47
ENDBRANCH   1  43
BRANCH   1  90
ATOM     90  C16 non d ame     -12.339  14.974  70.788  0.00  0.00    -0.035 C 
ATOM     91  H21 non d ame     -11.388  15.160  71.286  0.00  0.00     0.037 H 
ATOM     92  H22 non d ame     -12.888  15.800  70.336  0.00  0.00     0.037 H 
BRANCH  90  93
ATOM     93  C17 non d ame     -13.284  14.350  71.862  0.00  0.00    -0.059 C 
ATOM     94  H23 non d ame     -13.239  13.267  71.753  0.00  0.00     0.038 H 
BRANCH  93  95
ATOM     95  C18 non d ame     -12.838  14.701  73.317  0.00  0.00    -0.073 C 
ATOM     96  H24 non d ame     -12.042  15.446  73.283  0.00  0.00     0.028 H 
ATOM     97  H25 non d ame     -13.686  15.103  73.871  0.00  0.00     0.028 H 
ATOM     98  H26 non d ame     -12.474  13.802  73.813  0.00  0.00     0.028 H 
ENDBRANCH  93  95
BRANCH  93  99
ATOM     99  C19 non d ame     -14.737  14.770  71.622  0.00  0.00    -0.073 C 
ATOM    100  H27 non d ame     -14.848  15.121  70.596  0.00  0.00     0.028 H 
ATOM    101  H28 non d ame     -15.394  13.915  71.787  0.00  0.00     0.028 H 
ATOM    102  H29 non d ame     -15.003  15.571  72.311  0.00  0.00     0.028 H 
ENDBRANCH  93  99
ENDBRANCH  90  93
ENDBRANCH   1  90
TORSDOF 26
ENDMDL
MODEL 7
REMARK VINA RESULT:      -6.8      2.218      6.932
REMARK  26 active torsions:
REMARK  status: ('A' for Active; 'I' for Inactive)
REMARK    1  A    between atoms: C2_2  and  C3_3 
REMARK    2  A    between atoms: C4_6  and  C5_7 
REMARK       I    between atoms: C5_7  and  N2_9 
REMARK    3  A    between atoms: N2_9  and  C6_10 
REMARK    4  A    between atoms: C6_10  and  C7_11 
REMARK    5  A    between atoms: C6_10  and  C8_13 
REMARK       I    between atoms: C7_11  and  N3_14 
REMARK    6  A    between atoms: N3_14  and  C9_15 
REMARK    7  A    between atoms: C9_15  and  C10_16 
REMARK    8  A    between atoms: C9_15  and  C11_18 
REMARK       I    between atoms: C10_16  and  N4_21 
REMARK    9  A    between atoms: C11_18  and  C12_19 
REMARK   10  A    between atoms: C11_18  and  C13_20 
REMARK   11  A    between atoms: N4_21  and  C14_22 
REMARK   12  A    between atoms: C14_22  and  C15_23 
REMARK   13  A    between atoms: C14_22  and  C16_25 
REMARK       I    between atoms: C15_23  and  N6_40 
REMARK   14  A    between atoms: C16_25  and  C17_26 
REMARK   15  A    between atoms: C17_26  and  C18_27 
REMARK   16  A    between atoms: C17_26  and  C19_28 
REMARK   17  A    between atoms: C20_29  and  C21_30 
REMARK   18  A    between atoms: C20_29  and  C24_33 
REMARK   19  A    between atoms: C20_29  and  N6_40 
REMARK   20  A    between atoms: C21_30  and  C22_31 
REMARK   21  A    between atoms: C22_31  and  C23_32 
REMARK   22  A    between atoms: C23_32  and  O8_43 
REMARK   23  A    between atoms: C24_33  and  C25_34 
REMARK   24  A    between atoms: C28_38  and  O6_39 
REMARK   25  A    between atoms: C29_42  and  O8_43 
REMARK   26  A    between atoms: C29_42  and  C35_49 
ROOT
ATOM      1  C14 non d ame      -6.837  13.355  68.002  0.00  0.00     0.089 C 
ATOM      2  H20 non d ame      -6.098  13.189  67.218  0.00  0.00     0.087 H 
ENDROOT
BRANCH   1   3
ATOM      3  N4  non d ame      -7.148  14.777  68.018  0.00  0.00    -0.346 N 
ATOM      4  C10 non d ame      -6.102  15.790  67.625  0.00  0.00     0.241 C 
ATOM      5  O4  non d ame      -5.016  15.436  67.302  0.00  0.00    -0.271 OA
ATOM      6  H19 non d ame      -8.078  15.057  68.298  0.00  0.00     0.163 HD
BRANCH   4   7
ATOM      7  C9  non d ame      -6.442  17.256  67.642  0.00  0.00     0.092 C 
ATOM      8  H11 non d ame      -6.222  17.687  66.665  0.00  0.00     0.088 H 
BRANCH   7   9
ATOM      9  N3  non d ame      -7.881  17.422  67.873  0.00  0.00    -0.346 N 
ATOM     10  C7  non d ame      -8.756  17.737  66.771  0.00  0.00     0.240 C 
ATOM     11  O3  non d ame      -8.320  17.862  65.692  0.00  0.00    -0.271 OA
ATOM     12  H10 non d ame      -8.271  17.319  68.798  0.00  0.00     0.163 HD
BRANCH  10  13
ATOM     13  C6  non d ame     -10.285  17.915  67.024  0.00  0.00     0.086 C 
ATOM     14  H6  non d ame     -10.899  17.387  66.294  0.00  0.00     0.086 H 
BRANCH  13  15
ATOM     15  N2  non d ame     -10.616  17.358  68.325  0.00  0.00    -0.343 N 
ATOM     16  C5  non d ame     -11.211  16.022  68.406  0.00  0.00     0.273 C 
ATOM     17  O2  non d ame     -11.422  15.406  67.420  0.00  0.00    -0.266 OA
ATOM     18  H5  non d ame     -10.434  17.891  69.163  0.00  0.00     0.163 HD
BRANCH  16  19
ATOM     19  C4  non d ame     -11.564  15.418  69.775  0.00  0.00     0.154 A 
ATOM     20  C1  non d ame     -11.633  16.103  71.030  0.00  0.00    -0.017 A 
ATOM     21  C2  non d ame     -11.993  15.109  71.967  0.00  0.00     0.077 A 
ATOM     22  H1  non d ame     -11.449  17.159  71.230  0.00  0.00     0.091 H 
ATOM     23  O1  non d ame     -12.116  13.989  71.317  0.00  0.00    -0.218 OA
ATOM     24  N1  non d ame     -11.869  14.144  70.036  0.00  0.00    -0.123 NA
BRANCH  21  25
ATOM     25  C3  non d ame     -12.202  15.313  73.461  0.00  0.00    -0.029 C 
ATOM     26  H2  non d ame     -12.105  14.356  73.977  0.00  0.00     0.036 H 
ATOM     27  H3  non d ame     -11.452  16.007  73.841  0.00  0.00     0.036 H 
ATOM     28  H4  non d ame     -13.197  15.722  73.638  0.00  0.00     0.036 H 
ENDBRANCH  21  25
ENDBRANCH  16  19
ENDBRANCH  13  15
BRANCH  13  29
ATOM     29  C8  non d ame     -10.637  19.381  66.987  0.00  0.00    -0.049 C 
ATOM     30  H7  non d ame     -10.673  19.772  68.004  0.00  0.00     0.030 H 
ATOM     31  H8  non d ame      -9.880  19.921  66.417  0.00  0.00     0.030 H 
ATOM     32  H9  non d ame     -11.609  19.510  66.514  0.00  0.00     0.030 H 
ENDBRANCH  13  29
ENDBRANCH  10  13
ENDBRANCH   7   9
BRANCH   7  33
ATOM     33  C11 non d ame      -5.652  17.960  68.784  0.00  0.00    -0.033 C 
ATOM     34  H12 non d ame      -4.601  17.979  68.492  0.00  0.00     0.042 H 
BRANCH  33  35
ATOM     35  C12 non d ame      -6.115  19.439  68.968  0.00  0.00    -0.071 C 
ATOM     36  H13 non d ame      -5.362  19.987  69.535  0.00  0.00     0.028 H 
ATOM     37  H14 non d ame      -6.243  19.904  67.991  0.00  0.00     0.028 H 
ATOM     38  H15 non d ame      -7.062  19.458  69.507  0.00  0.00     0.028 H 
ENDBRANCH  33  35
BRANCH  33  39
ATOM     39  C13 non d ame      -5.768  17.159  70.120  0.00  0.00    -0.071 C 
ATOM     40  H16 non d ame      -4.937  17.420  70.774  0.00  0.00     0.028 H 
ATOM     41  H17 non d ame      -6.709  17.406  70.612  0.00  0.00     0.028 H 
ATOM     42  H18 non d ame      -5.740  16.091  69.906  0.00  0.00     0.028 H 
ENDBRANCH  33  39
ENDBRANCH   7  33
ENDBRANCH   4   7
ENDBRANCH   1   3
BRANCH   1  43
ATOM     43  C15 non d ame      -8.152  12.564  67.748  0.00  0.00     0.240 C 
ATOM     44  O5  non d ame      -9.173  12.944  68.225  0.00  0.00    -0.271 OA
ATOM     45  N6  non d ame      -8.141  11.336  66.902  0.00  0.00    -0.355 N 
ATOM     46  H46 non d ame      -7.281  11.006  66.488  0.00  0.00     0.162 HD
BRANCH  45  47
ATOM     47  C20 non d ame      -9.400  10.596  66.669  0.00  0.00     0.013 C 
ATOM     48  H30 non d ame     -10.198  11.118  67.195  0.00  0.00     0.072 H 
BRANCH  47  49
ATOM     49  C21 non d ame      -9.260   9.190  67.208  0.00  0.00    -0.038 C 
ATOM     50  H31 non d ame      -8.311   8.818  66.820  0.00  0.00     0.036 H 
ATOM     51  H32 non d ame      -9.416   9.271  68.284  0.00  0.00     0.036 H 
BRANCH  49  52
ATOM     52  C22 non d ame     -10.352   8.235  66.680  0.00  0.00     0.018 C 
ATOM     53  H33 non d ame     -11.123   8.211  67.452  0.00  0.00     0.048 H 
ATOM     54  H34 non d ame     -10.595   8.588  65.678  0.00  0.00     0.048 H 
BRANCH  52  55
ATOM     55  C23 non d ame      -9.872   6.766  66.513  0.00  0.00     0.259 C 
ATOM     56  O7  non d ame     -10.639   5.866  66.618  0.00  0.00    -0.265 OA
BRANCH  55  57
ATOM     57  O8  non d ame      -8.499   6.508  66.245  0.00  0.00    -0.317 OA
BRANCH  57  58
ATOM     58  C29 non d ame      -8.230   6.127  64.892  0.00  0.00     0.052 C 
ATOM     59  H47 non d ame      -7.439   5.380  64.947  0.00  0.00     0.082 H 
ATOM     60  H48 non d ame      -9.197   5.866  64.462  0.00  0.00     0.082 H 
BRANCH  58  61
ATOM     61  C35 non d ame      -7.680   7.371  64.145  0.00  0.00    -0.034 A 
ATOM     62  C30 non d ame      -6.774   8.218  64.774  0.00  0.00    -0.075 A 
ATOM     63  C31 non d ame      -6.280   9.335  64.103  0.00  0.00    -0.082 A 
ATOM     64  H49 non d ame      -6.451   8.006  65.793  0.00  0.00     0.084 H 
ATOM     65  C32 non d ame      -6.697   9.605  62.797  0.00  0.00    -0.083 A 
ATOM     66  H50 non d ame      -5.569   9.995  64.599  0.00  0.00     0.083 H 
ATOM     67  C33 non d ame      -7.605   8.760  62.174  0.00  0.00    -0.082 A 
ATOM     68  H51 non d ame      -6.316  10.477  62.265  0.00  0.00     0.083 H 
ATOM     69  C34 non d ame      -8.099   7.640  62.840  0.00  0.00    -0.075 A 
ATOM     70  H52 non d ame      -7.930   8.975  61.156  0.00  0.00     0.083 H 
ATOM     71  H53 non d ame      -8.811   6.980  62.343  0.00  0.00     0.084 H 
ENDBRANCH  58  61
ENDBRANCH  57  58
ENDBRANCH  55  57
ENDBRANCH  52  55
ENDBRANCH  49  52
ENDBRANCH  47  49
BRANCH  47  72
ATOM     72  C24 non d ame      -9.697  10.542  65.172  0.00  0.00    -0.039 C 
ATOM     73  H35 non d ame      -8.732  10.384  64.690  0.00  0.00     0.036 H 
ATOM     74  H36 non d ame     -10.489   9.801  65.060  0.00  0.00     0.036 H 
BRANCH  72  75
ATOM     75  C25 non d ame     -10.274  11.935  64.632  0.00  0.00    -0.001 C 
ATOM     76  C26 non d ame     -11.586  12.380  65.517  0.00  0.00    -0.035 C 
ATOM     77  C27 non d ame     -12.605  12.668  64.673  0.00  0.00     0.085 C 
ATOM     78  H38 non d ame     -11.959  11.528  66.086  0.00  0.00     0.036 H 
ATOM     79  H39 non d ame     -11.395  13.329  66.019  0.00  0.00     0.036 H 
ATOM     80  N5  non d ame     -12.211  12.148  63.312  0.00  0.00    -0.049 N 
ATOM     81  H40 non d ame     -13.458  12.095  65.039  0.00  0.00     0.075 H 
ATOM     82  H41 non d ame     -12.654  13.756  64.636  0.00  0.00     0.075 H 
ATOM     83  C28 non d ame     -10.627  11.846  63.393  0.00  0.00     0.193 C 
ATOM     84  H42 non d ame     -12.699  11.272  63.188  0.00  0.00     0.280 HD
ATOM     85  H43 non d ame     -12.361  12.905  62.661  0.00  0.00     0.280 HD
ATOM     86  H44 non d ame      -9.910  12.526  62.932  0.00  0.00     0.129 H 
ATOM     87  H37 non d ame      -9.491  12.681  64.497  0.00  0.00     0.046 H 
BRANCH  83  88
ATOM     88  O6  non d ame     -10.342  10.559  62.842  0.00  0.00    -0.369 OA
ATOM     89  H45 non d ame      -9.800  10.660  62.057  0.00  0.00     0.212 HD
ENDBRANCH  83  88
ENDBRANCH  72  75
ENDBRANCH  47  72
ENDBRANCH  45  47
ENDBRANCH   1  43
BRANCH   1  90
ATOM     90  C16 non d ame      -6.255  12.959  69.350  0.00  0.00    -0.035 C 
ATOM     91  H21 non d ame      -5.482  13.699  69.559  0.00  0.00     0.037 H 
ATOM     92  H22 non d ame      -7.111  12.862  70.017  0.00  0.00     0.037 H 
BRANCH  90  93
ATOM     93  C17 non d ame      -5.542  11.570  69.341  0.00  0.00    -0.059 C 
ATOM     94  H23 non d ame      -5.569  11.191  68.319  0.00  0.00     0.038 H 
BRANCH  93  95
ATOM     95  C18 non d ame      -4.045  11.671  69.772  0.00  0.00    -0.073 C 
ATOM     96  H24 non d ame      -3.903  11.146  70.717  0.00  0.00     0.028 H 
ATOM     97  H25 non d ame      -3.415  11.217  69.008  0.00  0.00     0.028 H 
ATOM     98  H26 non d ame      -3.771  12.718  69.893  0.00  0.00     0.028 H 
ENDBRANCH  93  95
BRANCH  93  99
ATOM     99  C19 non d ame      -6.295  10.564  70.216  0.00  0.00    -0.073 C 
ATOM    100  H27 non d ame      -7.085  11.079  70.763  0.00  0.00     0.028 H 
ATOM    101  H28 non d ame      -6.734   9.790  69.586  0.00  0.00     0.028 H 
ATOM    102  H29 non d ame      -5.603  10.108  70.923  0.00  0.00     0.028 H 
ENDBRANCH  93  99
ENDBRANCH  90  93
ENDBRANCH   1  90
TORSDOF 26
ENDMDL
MODEL 8
REMARK VINA RESULT:      -6.7      3.046      7.440
REMARK  26 active torsions:
REMARK  status: ('A' for Active; 'I' for Inactive)
REMARK    1  A    between atoms: C2_2  and  C3_3 
REMARK    2  A    between atoms: C4_6  and  C5_7 
REMARK       I    between atoms: C5_7  and  N2_9 
REMARK    3  A    between atoms: N2_9  and  C6_10 
REMARK    4  A    between atoms: C6_10  and  C7_11 
REMARK    5  A    between atoms: C6_10  and  C8_13 
REMARK       I    between atoms: C7_11  and  N3_14 
REMARK    6  A    between atoms: N3_14  and  C9_15 
REMARK    7  A    between atoms: C9_15  and  C10_16 
REMARK    8  A    between atoms: C9_15  and  C11_18 
REMARK       I    between atoms: C10_16  and  N4_21 
REMARK    9  A    between atoms: C11_18  and  C12_19 
REMARK   10  A    between atoms: C11_18  and  C13_20 
REMARK   11  A    between atoms: N4_21  and  C14_22 
REMARK   12  A    between atoms: C14_22  and  C15_23 
REMARK   13  A    between atoms: C14_22  and  C16_25 
REMARK       I    between atoms: C15_23  and  N6_40 
REMARK   14  A    between atoms: C16_25  and  C17_26 
REMARK   15  A    between atoms: C17_26  and  C18_27 
REMARK   16  A    between atoms: C17_26  and  C19_28 
REMARK   17  A    between atoms: C20_29  and  C21_30 
REMARK   18  A    between atoms: C20_29  and  C24_33 
REMARK   19  A    between atoms: C20_29  and  N6_40 
REMARK   20  A    between atoms: C21_30  and  C22_31 
REMARK   21  A    between atoms: C22_31  and  C23_32 
REMARK   22  A    between atoms: C23_32  and  O8_43 
REMARK   23  A    between atoms: C24_33  and  C25_34 
REMARK   24  A    between atoms: C28_38  and  O6_39 
REMARK   25  A    between atoms: C29_42  and  O8_43 
REMARK   26  A    between atoms: C29_42  and  C35_49 
ROOT
ATOM      1  C14 non d ame      -7.154   9.528  66.767  0.00  0.00     0.089 C 
ATOM      2  H20 non d ame      -6.093   9.627  66.540  0.00  0.00     0.087 H 
ENDROOT
BRANCH   1   3
ATOM      3  N4  non d ame      -7.542  10.682  67.565  0.00  0.00    -0.346 N 
ATOM      4  C10 non d ame      -6.811  11.992  67.414  0.00  0.00     0.241 C 
ATOM      5  O4  non d ame      -5.911  12.093  66.645  0.00  0.00    -0.271 OA
ATOM      6  H19 non d ame      -8.308  10.574  68.215  0.00  0.00     0.163 HD
BRANCH   4   7
ATOM      7  C9  non d ame      -7.228  13.178  68.243  0.00  0.00     0.092 C 
ATOM      8  H11 non d ame      -7.145  14.083  67.642  0.00  0.00     0.088 H 
BRANCH   7   9
ATOM      9  N3  non d ame      -8.637  13.038  68.622  0.00  0.00    -0.346 N 
ATOM     10  C7  non d ame      -9.591  14.049  68.238  0.00  0.00     0.240 C 
ATOM     11  O3  non d ame      -9.241  14.984  67.626  0.00  0.00    -0.271 OA
ATOM     12  H10 non d ame      -8.953  12.238  69.151  0.00  0.00     0.163 HD
BRANCH  10  13
ATOM     13  C6  non d ame     -11.089  13.896  68.647  0.00  0.00     0.086 C 
ATOM     14  H6  non d ame     -11.717  13.549  67.827  0.00  0.00     0.086 H 
BRANCH  13  15
ATOM     15  N2  non d ame     -11.190  12.897  69.698  0.00  0.00    -0.343 N 
ATOM     16  C5  non d ame     -11.790  11.594  69.400  0.00  0.00     0.273 C 
ATOM     17  O2  non d ame     -12.189  11.361  68.312  0.00  0.00    -0.266 OA
ATOM     18  H5  non d ame     -10.849  13.105  70.625  0.00  0.00     0.163 HD
BRANCH  16  19
ATOM     19  C4  non d ame     -11.902  10.528  70.500  0.00  0.00     0.154 A 
ATOM     20  C1  non d ame     -10.908   9.571  70.881  0.00  0.00    -0.017 A 
ATOM     21  C2  non d ame     -11.498   8.831  71.930  0.00  0.00     0.077 A 
ATOM     22  H1  non d ame      -9.911   9.434  70.461  0.00  0.00     0.091 H 
ATOM     23  O1  non d ame     -12.691   9.315  72.122  0.00  0.00    -0.218 OA
ATOM     24  N1  non d ame     -12.949  10.305  71.299  0.00  0.00    -0.123 NA
BRANCH  21  25
ATOM     25  C3  non d ame     -10.856   7.681  72.694  0.00  0.00    -0.029 C 
ATOM     26  H2  non d ame      -9.839   7.955  72.978  0.00  0.00     0.036 H 
ATOM     27  H3  non d ame     -11.439   7.472  73.591  0.00  0.00     0.036 H 
ATOM     28  H4  non d ame     -10.831   6.793  72.063  0.00  0.00     0.036 H 
ENDBRANCH  21  25
ENDBRANCH  16  19
ENDBRANCH  13  15
BRANCH  13  29
ATOM     29  C8  non d ame     -11.617  15.219  69.141  0.00  0.00    -0.049 C 
ATOM     30  H7  non d ame     -12.534  15.466  68.607  0.00  0.00     0.030 H 
ATOM     31  H8  non d ame     -11.825  15.151  70.209  0.00  0.00     0.030 H 
ATOM     32  H9  non d ame     -10.874  15.995  68.964  0.00  0.00     0.030 H 
ENDBRANCH  13  29
ENDBRANCH  10  13
ENDBRANCH   7   9
BRANCH   7  33
ATOM     33  C11 non d ame      -6.352  13.246  69.529  0.00  0.00    -0.033 C 
ATOM     34  H12 non d ame      -6.946  13.729  70.305  0.00  0.00     0.042 H 
BRANCH  33  35
ATOM     35  C12 non d ame      -5.982  11.820  70.041  0.00  0.00    -0.071 C 
ATOM     36  H13 non d ame      -6.848  11.165  69.951  0.00  0.00     0.028 H 
ATOM     37  H14 non d ame      -5.162  11.421  69.444  0.00  0.00     0.028 H 
ATOM     38  H15 non d ame      -5.676  11.877  71.085  0.00  0.00     0.028 H 
ENDBRANCH  33  35
BRANCH  33  39
ATOM     39  C13 non d ame      -5.074  14.112  69.289  0.00  0.00    -0.071 C 
ATOM     40  H16 non d ame      -5.192  15.078  69.780  0.00  0.00     0.028 H 
ATOM     41  H17 non d ame      -4.205  13.599  69.699  0.00  0.00     0.028 H 
ATOM     42  H18 non d ame      -4.935  14.264  68.219  0.00  0.00     0.028 H 
ENDBRANCH  33  39
ENDBRANCH   7  33
ENDBRANCH   4   7
ENDBRANCH   1   3
BRANCH   1  43
ATOM     43  C15 non d ame      -8.031   9.497  65.482  0.00  0.00     0.240 C 
ATOM     44  O5  non d ame      -8.857   8.653  65.350  0.00  0.00    -0.271 OA
ATOM     45  N6  non d ame      -7.846  10.526  64.420  0.00  0.00    -0.355 N 
ATOM     46  H46 non d ame      -7.150  11.251  64.522  0.00  0.00     0.162 HD
BRANCH  45  47
ATOM     47  C20 non d ame      -8.688  10.484  63.205  0.00  0.00     0.013 C 
ATOM     48  H30 non d ame      -9.218   9.532  63.197  0.00  0.00     0.072 H 
BRANCH  47  49
ATOM     49  C21 non d ame      -7.807  10.593  61.981  0.00  0.00    -0.038 C 
ATOM     50  H31 non d ame      -8.477  10.832  61.155  0.00  0.00     0.036 H 
ATOM     51  H32 non d ame      -7.009  11.286  62.255  0.00  0.00     0.036 H 
BRANCH  49  52
ATOM     52  C22 non d ame      -7.120   9.260  61.616  0.00  0.00     0.018 C 
ATOM     53  H33 non d ame      -7.857   8.482  61.820  0.00  0.00     0.048 H 
ATOM     54  H34 non d ame      -6.735   9.394  60.605  0.00  0.00     0.048 H 
BRANCH  52  55
ATOM     55  C23 non d ame      -5.889   8.926  62.504  0.00  0.00     0.259 C 
ATOM     56  O7  non d ame      -5.179   9.792  62.899  0.00  0.00    -0.265 OA
BRANCH  55  57
ATOM     57  O8  non d ame      -5.611   7.570  62.829  0.00  0.00    -0.317 OA
BRANCH  57  58
ATOM     58  C29 non d ame      -6.765   6.810  63.200  0.00  0.00     0.052 C 
ATOM     59  H47 non d ame      -7.479   7.531  63.597  0.00  0.00     0.082 H 
ATOM     60  H48 non d ame      -7.022   6.217  62.322  0.00  0.00     0.082 H 
BRANCH  58  61
ATOM     61  C35 non d ame      -6.355   5.844  64.343  0.00  0.00    -0.034 A 
ATOM     62  C30 non d ame      -5.032   5.436  64.469  0.00  0.00    -0.075 A 
ATOM     63  C31 non d ame      -4.663   4.569  65.496  0.00  0.00    -0.082 A 
ATOM     64  H49 non d ame      -4.283   5.797  63.764  0.00  0.00     0.084 H 
ATOM     65  C32 non d ame      -5.625   4.106  66.397  0.00  0.00    -0.083 A 
ATOM     66  H50 non d ame      -3.625   4.252  65.593  0.00  0.00     0.083 H 
ATOM     67  C33 non d ame      -6.946   4.512  66.266  0.00  0.00    -0.082 A 
ATOM     68  H51 non d ame      -5.346   3.427  67.203  0.00  0.00     0.083 H 
ATOM     69  C34 non d ame      -7.318   5.382  65.242  0.00  0.00    -0.075 A 
ATOM     70  H52 non d ame      -7.695   4.148  66.969  0.00  0.00     0.083 H 
ATOM     71  H53 non d ame      -8.358   5.698  65.146  0.00  0.00     0.084 H 
ENDBRANCH  58  61
ENDBRANCH  57  58
ENDBRANCH  55  57
ENDBRANCH  52  55
ENDBRANCH  49  52
ENDBRANCH  47  49
BRANCH  47  72
ATOM     72  C24 non d ame      -9.680  11.644  63.224  0.00  0.00    -0.039 C 
ATOM     73  H35 non d ame      -9.131  12.490  63.638  0.00  0.00     0.036 H 
ATOM     74  H36 non d ame     -10.083  11.699  62.212  0.00  0.00     0.036 H 
BRANCH  72  75
ATOM     75  C25 non d ame     -10.912  11.354  64.207  0.00  0.00    -0.001 C 
ATOM     76  C26 non d ame     -12.318  11.829  63.500  0.00  0.00    -0.035 C 
ATOM     77  C27 non d ame     -12.992  12.628  64.360  0.00  0.00     0.085 C 
ATOM     78  H38 non d ame     -12.108  12.484  62.655  0.00  0.00     0.036 H 
ATOM     79  H39 non d ame     -12.981  10.973  63.374  0.00  0.00     0.036 H 
ATOM     80  N5  non d ame     -12.029  13.006  65.459  0.00  0.00    -0.049 N 
ATOM     81  H40 non d ame     -13.249  13.521  63.790  0.00  0.00     0.075 H 
ATOM     82  H41 non d ame     -13.781  12.004  64.780  0.00  0.00     0.075 H 
ATOM     83  C28 non d ame     -10.779  11.992  65.323  0.00  0.00     0.193 C 
ATOM     84  H42 non d ame     -11.708  13.941  65.249  0.00  0.00     0.280 HD
ATOM     85  H43 non d ame     -12.501  12.819  66.331  0.00  0.00     0.280 HD
ATOM     86  H44 non d ame     -10.665  11.159  66.016  0.00  0.00     0.129 H 
ATOM     87  H37 non d ame     -10.881  10.347  64.622  0.00  0.00     0.046 H 
BRANCH  83  88
ATOM     88  O6  non d ame      -9.549  12.715  65.388  0.00  0.00    -0.369 OA
ATOM     89  H45 non d ame      -8.814  12.098  65.365  0.00  0.00     0.212 HD
ENDBRANCH  83  88
ENDBRANCH  72  75
ENDBRANCH  47  72
ENDBRANCH  45  47
ENDBRANCH   1  43
BRANCH   1  90
ATOM     90  C16 non d ame      -7.391   8.262  67.577  0.00  0.00    -0.035 C 
ATOM     91  H21 non d ame      -7.921   8.588  68.473  0.00  0.00     0.037 H 
ATOM     92  H22 non d ame      -7.864   7.563  66.888  0.00  0.00     0.037 H 
BRANCH  90  93
ATOM     93  C17 non d ame      -6.076   7.578  68.068  0.00  0.00    -0.059 C 
ATOM     94  H23 non d ame      -6.214   6.500  67.987  0.00  0.00     0.038 H 
BRANCH  93  95
ATOM     95  C18 non d ame      -4.844   7.968  67.190  0.00  0.00    -0.073 C 
ATOM     96  H24 non d ame      -4.552   7.117  66.575  0.00  0.00     0.028 H 
ATOM     97  H25 non d ame      -5.108   8.807  66.546  0.00  0.00     0.028 H 
ATOM     98  H26 non d ame      -4.013   8.253  67.835  0.00  0.00     0.028 H 
ENDBRANCH  93  95
BRANCH  93  99
ATOM     99  C19 non d ame      -5.815   7.892  69.544  0.00  0.00    -0.073 C 
ATOM    100  H27 non d ame      -6.639   7.511  70.147  0.00  0.00     0.028 H 
ATOM    101  H28 non d ame      -4.885   7.417  69.857  0.00  0.00     0.028 H 
ATOM    102  H29 non d ame      -5.735   8.970  69.677  0.00  0.00     0.028 H 
ENDBRANCH  93  99
ENDBRANCH  90  93
ENDBRANCH   1  90
TORSDOF 26
ENDMDL
MODEL 9
REMARK VINA RESULT:      -6.6      3.752      9.363
REMARK  26 active torsions:
REMARK  status: ('A' for Active; 'I' for Inactive)
REMARK    1  A    between atoms: C2_2  and  C3_3 
REMARK    2  A    between atoms: C4_6  and  C5_7 
REMARK       I    between atoms: C5_7  and  N2_9 
REMARK    3  A    between atoms: N2_9  and  C6_10 
REMARK    4  A    between atoms: C6_10  and  C7_11 
REMARK    5  A    between atoms: C6_10  and  C8_13 
REMARK       I    between atoms: C7_11  and  N3_14 
REMARK    6  A    between atoms: N3_14  and  C9_15 
REMARK    7  A    between atoms: C9_15  and  C10_16 
REMARK    8  A    between atoms: C9_15  and  C11_18 
REMARK       I    between atoms: C10_16  and  N4_21 
REMARK    9  A    between atoms: C11_18  and  C12_19 
REMARK   10  A    between atoms: C11_18  and  C13_20 
REMARK   11  A    between atoms: N4_21  and  C14_22 
REMARK   12  A    between atoms: C14_22  and  C15_23 
REMARK   13  A    between atoms: C14_22  and  C16_25 
REMARK       I    between atoms: C15_23  and  N6_40 
REMARK   14  A    between atoms: C16_25  and  C17_26 
REMARK   15  A    between atoms: C17_26  and  C18_27 
REMARK   16  A    between atoms: C17_26  and  C19_28 
REMARK   17  A    between atoms: C20_29  and  C21_30 
REMARK   18  A    between atoms: C20_29  and  C24_33 
REMARK   19  A    between atoms: C20_29  and  N6_40 
REMARK   20  A    between atoms: C21_30  and  C22_31 
REMARK   21  A    between atoms: C22_31  and  C23_32 
REMARK   22  A    between atoms: C23_32  and  O8_43 
REMARK   23  A    between atoms: C24_33  and  C25_34 
REMARK   24  A    between atoms: C28_38  and  O6_39 
REMARK   25  A    between atoms: C29_42  and  O8_43 
REMARK   26  A    between atoms: C29_42  and  C35_49 
ROOT
ATOM      1  C14 non d ame      -8.242   8.440  62.978  0.00  0.00     0.089 C 
ATOM      2  H20 non d ame      -8.809   8.235  62.070  0.00  0.00     0.087 H 
ENDROOT
BRANCH   1   3
ATOM      3  N4  non d ame      -9.108   9.188  63.877  0.00  0.00    -0.346 N 
ATOM      4  C10 non d ame      -9.638  10.541  63.473  0.00  0.00     0.241 C 
ATOM      5  O4  non d ame      -9.352  11.008  62.420  0.00  0.00    -0.271 OA
ATOM      6  H19 non d ame      -9.337   8.775  64.770  0.00  0.00     0.163 HD
BRANCH   4   7
ATOM      7  C9  non d ame     -10.537  11.300  64.413  0.00  0.00     0.092 C 
ATOM      8  H11 non d ame     -11.177  10.595  64.945  0.00  0.00     0.088 H 
BRANCH   7   9
ATOM      9  N3  non d ame      -9.723  11.988  65.420  0.00  0.00    -0.346 N 
ATOM     10  C7  non d ame      -9.500  11.377  66.707  0.00  0.00     0.240 C 
ATOM     11  O3  non d ame      -9.969  10.333  66.951  0.00  0.00    -0.271 OA
ATOM     12  H10 non d ame      -9.313  12.890  65.225  0.00  0.00     0.163 HD
BRANCH  10  13
ATOM     13  C6  non d ame      -8.635  12.116  67.775  0.00  0.00     0.086 C 
ATOM     14  H6  non d ame      -8.014  12.903  67.346  0.00  0.00     0.086 H 
BRANCH  13  15
ATOM     15  N2  non d ame      -9.519  12.761  68.732  0.00  0.00    -0.343 N 
ATOM     16  C5  non d ame     -10.092  14.071  68.415  0.00  0.00     0.273 C 
ATOM     17  O2  non d ame      -9.834  14.599  67.390  0.00  0.00    -0.266 OA
ATOM     18  H5  non d ame      -9.733  12.305  69.607  0.00  0.00     0.163 HD
BRANCH  16  19
ATOM     19  C4  non d ame     -11.030  14.764  69.417  0.00  0.00     0.154 A 
ATOM     20  C1  non d ame     -12.138  14.180  70.109  0.00  0.00    -0.017 A 
ATOM     21  C2  non d ame     -12.664  15.226  70.901  0.00  0.00     0.077 A 
ATOM     22  H1  non d ame     -12.504  13.155  70.048  0.00  0.00     0.091 H 
ATOM     23  O1  non d ame     -11.935  16.282  70.682  0.00  0.00    -0.218 OA
ATOM     24  N1  non d ame     -10.975  16.037  69.819  0.00  0.00    -0.123 NA
BRANCH  21  25
ATOM     25  C3  non d ame     -13.860  15.133  71.838  0.00  0.00    -0.029 C 
ATOM     26  H2  non d ame     -14.654  15.791  71.482  0.00  0.00     0.036 H 
ATOM     27  H3  non d ame     -14.224  14.106  71.861  0.00  0.00     0.036 H 
ATOM     28  H4  non d ame     -13.561  15.435  72.842  0.00  0.00     0.036 H 
ENDBRANCH  21  25
ENDBRANCH  16  19
ENDBRANCH  13  15
BRANCH  13  29
ATOM     29  C8  non d ame      -7.746  11.124  68.481  0.00  0.00    -0.049 C 
ATOM     30  H7  non d ame      -8.213  10.139  68.462  0.00  0.00     0.030 H 
ATOM     31  H8  non d ame      -6.781  11.079  67.976  0.00  0.00     0.030 H 
ATOM     32  H9  non d ame      -7.602  11.437  69.514  0.00  0.00     0.030 H 
ENDBRANCH  13  29
ENDBRANCH  10  13
ENDBRANCH   7   9
BRANCH   7  33
ATOM     33  C11 non d ame     -11.361  12.349  63.611  0.00  0.00    -0.033 C 
ATOM     34  H12 non d ame     -10.810  12.568  62.695  0.00  0.00     0.042 H 
BRANCH  33  35
ATOM     35  C12 non d ame     -12.754  11.781  63.196  0.00  0.00    -0.071 C 
ATOM     36  H13 non d ame     -12.898  11.921  62.124  0.00  0.00     0.028 H 
ATOM     37  H14 non d ame     -12.798  10.718  63.432  0.00  0.00     0.028 H 
ATOM     38  H15 non d ame     -13.537  12.307  63.741  0.00  0.00     0.028 H 
ENDBRANCH  33  35
BRANCH  33  39
ATOM     39  C13 non d ame     -11.509  13.679  64.417  0.00  0.00    -0.071 C 
ATOM     40  H16 non d ame     -12.293  13.565  65.165  0.00  0.00     0.028 H 
ATOM     41  H17 non d ame     -10.565  13.912  64.911  0.00  0.00     0.028 H 
ATOM     42  H18 non d ame     -11.771  14.488  63.735  0.00  0.00     0.028 H 
ENDBRANCH  33  39
ENDBRANCH   7  33
ENDBRANCH   4   7
ENDBRANCH   1   3
BRANCH   1  43
ATOM     43  C15 non d ame      -7.792   7.135  63.696  0.00  0.00     0.240 C 
ATOM     44  O5  non d ame      -7.409   6.209  63.055  0.00  0.00    -0.271 OA
ATOM     45  N6  non d ame      -7.830   7.042  65.183  0.00  0.00    -0.355 N 
ATOM     46  H46 non d ame      -8.150   7.822  65.739  0.00  0.00     0.162 HD
BRANCH  45  47
ATOM     47  C20 non d ame      -7.398   5.795  65.851  0.00  0.00     0.013 C 
ATOM     48  H30 non d ame      -7.595   4.966  65.172  0.00  0.00     0.072 H 
BRANCH  47  49
ATOM     49  C21 non d ame      -8.185   5.613  67.129  0.00  0.00    -0.038 C 
ATOM     50  H31 non d ame      -7.739   4.753  67.630  0.00  0.00     0.036 H 
ATOM     51  H32 non d ame      -8.183   6.589  67.616  0.00  0.00     0.036 H 
BRANCH  49  52
ATOM     52  C22 non d ame      -9.665   5.254  66.877  0.00  0.00     0.018 C 
ATOM     53  H33 non d ame      -9.778   5.214  65.793  0.00  0.00     0.048 H 
ATOM     54  H34 non d ame      -9.860   4.367  67.479  0.00  0.00     0.048 H 
BRANCH  52  55
ATOM     55  C23 non d ame     -10.664   6.337  67.371  0.00  0.00     0.259 C 
ATOM     56  O7  non d ame     -10.861   7.314  66.725  0.00  0.00    -0.265 OA
BRANCH  55  57
ATOM     57  O8  non d ame     -11.332   6.155  68.613  0.00  0.00    -0.317 OA
BRANCH  57  58
ATOM     58  C29 non d ame     -10.563   6.553  69.752  0.00  0.00     0.052 C 
ATOM     59  H47 non d ame     -10.650   5.736  70.468  0.00  0.00     0.082 H 
ATOM     60  H48 non d ame      -9.584   6.834  69.364  0.00  0.00     0.082 H 
BRANCH  58  61
ATOM     61  C35 non d ame     -11.230   7.814  70.363  0.00  0.00    -0.034 A 
ATOM     62  C30 non d ame     -10.856   9.080  69.927  0.00  0.00    -0.075 A 
ATOM     63  C31 non d ame     -11.455  10.213  70.475  0.00  0.00    -0.082 A 
ATOM     64  H49 non d ame     -10.094   9.185  69.155  0.00  0.00     0.084 H 
ATOM     65  C32 non d ame     -12.430  10.076  71.466  0.00  0.00    -0.083 A 
ATOM     66  H50 non d ame     -11.160  11.204  70.130  0.00  0.00     0.083 H 
ATOM     67  C33 non d ame     -12.799   8.810  71.902  0.00  0.00    -0.082 A 
ATOM     68  H51 non d ame     -12.904  10.956  71.901  0.00  0.00     0.083 H 
ATOM     69  C34 non d ame     -12.204   7.675  71.354  0.00  0.00    -0.075 A 
ATOM     70  H52 non d ame     -13.558   8.707  72.677  0.00  0.00     0.083 H 
ATOM     71  H53 non d ame     -12.500   6.684  71.700  0.00  0.00     0.084 H 
ENDBRANCH  58  61
ENDBRANCH  57  58
ENDBRANCH  55  57
ENDBRANCH  52  55
ENDBRANCH  49  52
ENDBRANCH  47  49
BRANCH  47  72
ATOM     72  C24 non d ame      -5.908   5.873  66.175  0.00  0.00    -0.039 C 
ATOM     73  H35 non d ame      -5.589   6.860  65.841  0.00  0.00     0.036 H 
ATOM     74  H36 non d ame      -5.825   5.602  67.228  0.00  0.00     0.036 H 
BRANCH  72  75
ATOM     75  C25 non d ame      -5.063   4.796  65.343  0.00  0.00    -0.001 C 
ATOM     76  C26 non d ame      -4.877   3.423  66.228  0.00  0.00    -0.035 C 
ATOM     77  C27 non d ame      -3.564   3.093  66.253  0.00  0.00     0.085 C 
ATOM     78  H38 non d ame      -5.110   3.619  67.275  0.00  0.00     0.036 H 
ATOM     79  H39 non d ame      -5.343   2.581  65.716  0.00  0.00     0.036 H 
ATOM     80  N5  non d ame      -2.799   4.289  65.741  0.00  0.00    -0.049 N 
ATOM     81  H40 non d ame      -3.321   2.939  67.304  0.00  0.00     0.075 H 
ATOM     82  H41 non d ame      -3.457   2.274  65.542  0.00  0.00     0.075 H 
ATOM     83  C28 non d ame      -3.892   5.251  65.043  0.00  0.00     0.193 C 
ATOM     84  H42 non d ame      -2.429   4.762  66.554  0.00  0.00     0.280 HD
ATOM     85  H43 non d ame      -2.172   3.946  65.028  0.00  0.00     0.280 HD
ATOM     86  H44 non d ame      -3.971   5.302  63.956  0.00  0.00     0.129 H 
ATOM     87  H37 non d ame      -5.430   4.682  64.323  0.00  0.00     0.046 H 
BRANCH  83  88
ATOM     88  O6  non d ame      -3.710   6.600  65.477  0.00  0.00    -0.369 OA
ATOM     89  H45 non d ame      -4.395   7.154  65.095  0.00  0.00     0.212 HD
ENDBRANCH  83  88
ENDBRANCH  72  75
ENDBRANCH  47  72
ENDBRANCH  45  47
ENDBRANCH   1  43
BRANCH   1  90
ATOM     90  C16 non d ame      -7.023   9.285  62.644  0.00  0.00    -0.035 C 
ATOM     91  H21 non d ame      -6.688   8.935  61.667  0.00  0.00     0.037 H 
ATOM     92  H22 non d ame      -7.345  10.318  62.770  0.00  0.00     0.037 H 
BRANCH  90  93
ATOM     93  C17 non d ame      -5.825   9.072  63.623  0.00  0.00    -0.059 C 
ATOM     94  H23 non d ame      -6.034   8.178  64.210  0.00  0.00     0.038 H 
BRANCH  93  95
ATOM     95  C18 non d ame      -4.478   8.844  62.867  0.00  0.00    -0.073 C 
ATOM     96  H24 non d ame      -3.945   9.791  62.781  0.00  0.00     0.028 H 
ATOM     97  H25 non d ame      -3.866   8.133  63.423  0.00  0.00     0.028 H 
ATOM     98  H26 non d ame      -4.681   8.448  61.873  0.00  0.00     0.028 H 
ENDBRANCH  93  95
BRANCH  93  99
ATOM     99  C19 non d ame      -5.708  10.242  64.605  0.00  0.00    -0.073 C 
ATOM    100  H27 non d ame      -4.871  10.066  65.280  0.00  0.00     0.028 H 
ATOM    101  H28 non d ame      -5.541  11.166  64.051  0.00  0.00     0.028 H 
ATOM    102  H29 non d ame      -6.628  10.325  65.182  0.00  0.00     0.028 H 
ENDBRANCH  93  99
ENDBRANCH  90  93
ENDBRANCH   1  90
TORSDOF 26
ENDMDL
MODEL 10
REMARK VINA RESULT:      -6.5      2.893      6.992
REMARK  26 active torsions:
REMARK  status: ('A' for Active; 'I' for Inactive)
REMARK    1  A    between atoms: C2_2  and  C3_3 
REMARK    2  A    between atoms: C4_6  and  C5_7 
REMARK       I    between atoms: C5_7  and  N2_9 
REMARK    3  A    between atoms: N2_9  and  C6_10 
REMARK    4  A    between atoms: C6_10  and  C7_11 
REMARK    5  A    between atoms: C6_10  and  C8_13 
REMARK       I    between atoms: C7_11  and  N3_14 
REMARK    6  A    between atoms: N3_14  and  C9_15 
REMARK    7  A    between atoms: C9_15  and  C10_16 
REMARK    8  A    between atoms: C9_15  and  C11_18 
REMARK       I    between atoms: C10_16  and  N4_21 
REMARK    9  A    between atoms: C11_18  and  C12_19 
REMARK   10  A    between atoms: C11_18  and  C13_20 
REMARK   11  A    between atoms: N4_21  and  C14_22 
REMARK   12  A    between atoms: C14_22  and  C15_23 
REMARK   13  A    between atoms: C14_22  and  C16_25 
REMARK       I    between atoms: C15_23  and  N6_40 
REMARK   14  A    between atoms: C16_25  and  C17_26 
REMARK   15  A    between atoms: C17_26  and  C18_27 
REMARK   16  A    between atoms: C17_26  and  C19_28 
REMARK   17  A    between atoms: C20_29  and  C21_30 
REMARK   18  A    between atoms: C20_29  and  C24_33 
REMARK   19  A    between atoms: C20_29  and  N6_40 
REMARK   20  A    between atoms: C21_30  and  C22_31 
REMARK   21  A    between atoms: C22_31  and  C23_32 
REMARK   22  A    between atoms: C23_32  and  O8_43 
REMARK   23  A    between atoms: C24_33  and  C25_34 
REMARK   24  A    between atoms: C28_38  and  O6_39 
REMARK   25  A    between atoms: C29_42  and  O8_43 
REMARK   26  A    between atoms: C29_42  and  C35_49 
ROOT
ATOM      1  C14 non d ame     -11.373  10.224  69.674  0.00  0.00     0.089 C 
ATOM      2  H20 non d ame     -11.794   9.386  69.118  0.00  0.00     0.087 H 
ENDROOT
BRANCH   1   3
ATOM      3  N4  non d ame      -9.935  10.021  69.753  0.00  0.00    -0.346 N 
ATOM      4  C10 non d ame      -9.341   8.663  69.474  0.00  0.00     0.241 C 
ATOM      5  O4  non d ame     -10.042   7.748  69.188  0.00  0.00    -0.271 OA
ATOM      6  H19 non d ame      -9.356  10.811  70.000  0.00  0.00     0.163 HD
BRANCH   4   7
ATOM      7  C9  non d ame      -7.850   8.471  69.555  0.00  0.00     0.092 C 
ATOM      8  H11 non d ame      -7.630   7.409  69.668  0.00  0.00     0.088 H 
BRANCH   7   9
ATOM      9  N3  non d ame      -7.231   8.909  68.301  0.00  0.00    -0.346 N 
ATOM     10  C7  non d ame      -6.848   7.938  67.306  0.00  0.00     0.240 C 
ATOM     11  O3  non d ame      -7.030   6.798  67.500  0.00  0.00    -0.271 OA
ATOM     12  H10 non d ame      -7.066   9.889  68.121  0.00  0.00     0.163 HD
BRANCH  10  13
ATOM     13  C6  non d ame      -6.187   8.411  65.975  0.00  0.00     0.086 C 
ATOM     14  H6  non d ame      -6.072   7.605  65.251  0.00  0.00     0.086 H 
BRANCH  13  15
ATOM     15  N2  non d ame      -7.041   9.410  65.354  0.00  0.00    -0.343 N 
ATOM     16  C5  non d ame      -8.204   8.979  64.574  0.00  0.00     0.273 C 
ATOM     17  O2  non d ame      -8.441   7.828  64.450  0.00  0.00    -0.266 OA
ATOM     18  H5  non d ame      -6.830  10.391  65.463  0.00  0.00     0.163 HD
BRANCH  16  19
ATOM     19  C4  non d ame      -9.117  10.024  63.913  0.00  0.00     0.154 A 
ATOM     20  C1  non d ame     -10.268  10.653  64.487  0.00  0.00    -0.017 A 
ATOM     21  C2  non d ame     -10.746  11.522  63.482  0.00  0.00     0.077 A 
ATOM     22  H1  non d ame     -10.691  10.501  65.480  0.00  0.00     0.091 H 
ATOM     23  O1  non d ame      -9.955  11.402  62.456  0.00  0.00    -0.218 OA
ATOM     24  N1  non d ame      -8.997  10.532  62.684  0.00  0.00    -0.123 NA
BRANCH  21  25
ATOM     25  C3  non d ame     -11.961  12.434  63.582  0.00  0.00    -0.029 C 
ATOM     26  H2  non d ame     -12.633  12.240  62.745  0.00  0.00     0.036 H 
ATOM     27  H3  non d ame     -12.484  12.240  64.519  0.00  0.00     0.036 H 
ATOM     28  H4  non d ame     -11.639  13.475  63.556  0.00  0.00     0.036 H 
ENDBRANCH  21  25
ENDBRANCH  16  19
ENDBRANCH  13  15
BRANCH  13  29
ATOM     29  C8  non d ame      -4.831   9.001  66.266  0.00  0.00    -0.049 C 
ATOM     30  H7  non d ame      -4.940   9.848  66.943  0.00  0.00     0.030 H 
ATOM     31  H8  non d ame      -4.197   8.244  66.730  0.00  0.00     0.030 H 
ATOM     32  H9  non d ame      -4.374   9.337  65.336  0.00  0.00     0.030 H 
ENDBRANCH  13  29
ENDBRANCH  10  13
ENDBRANCH   7   9
BRANCH   7  33
ATOM     33  C11 non d ame      -7.282   9.314  70.734  0.00  0.00    -0.033 C 
ATOM     34  H12 non d ame      -8.076   9.978  71.076  0.00  0.00     0.042 H 
BRANCH  33  35
ATOM     35  C12 non d ame      -6.877   8.408  71.938  0.00  0.00    -0.071 C 
ATOM     36  H13 non d ame      -5.792   8.307  71.968  0.00  0.00     0.028 H 
ATOM     37  H14 non d ame      -7.225   8.859  72.866  0.00  0.00     0.028 H 
ATOM     38  H15 non d ame      -7.331   7.424  71.820  0.00  0.00     0.028 H 
ENDBRANCH  33  35
BRANCH  33  39
ATOM     39  C13 non d ame      -6.083  10.198  70.262  0.00  0.00    -0.071 C 
ATOM     40  H16 non d ame      -5.490  10.497  71.126  0.00  0.00     0.028 H 
ATOM     41  H17 non d ame      -5.460   9.628  69.572  0.00  0.00     0.028 H 
ATOM     42  H18 non d ame      -6.464  11.086  69.758  0.00  0.00     0.028 H 
ENDBRANCH  33  39
ENDBRANCH   7  33
ENDBRANCH   4   7
ENDBRANCH   1   3
BRANCH   1  43
ATOM     43  C15 non d ame     -11.642  11.588  68.974  0.00  0.00     0.240 C 
ATOM     44  O5  non d ame     -12.259  11.619  67.958  0.00  0.00    -0.271 OA
ATOM     45  N6  non d ame     -11.140  12.855  69.576  0.00  0.00    -0.355 N 
ATOM     46  H46 non d ame     -10.619  12.842  70.441  0.00  0.00     0.162 HD
BRANCH  45  47
ATOM     47  C20 non d ame     -11.405  14.143  68.900  0.00  0.00     0.013 C 
ATOM     48  H30 non d ame     -12.282  14.014  68.265  0.00  0.00     0.072 H 
BRANCH  47  49
ATOM     49  C21 non d ame     -10.208  14.522  68.057  0.00  0.00    -0.038 C 
ATOM     50  H31 non d ame     -10.121  15.605  68.139  0.00  0.00     0.036 H 
ATOM     51  H32 non d ame      -9.395  13.881  68.398  0.00  0.00     0.036 H 
BRANCH  49  52
ATOM     52  C22 non d ame     -10.409  14.211  66.558  0.00  0.00     0.018 C 
ATOM     53  H33 non d ame      -9.530  13.642  66.253  0.00  0.00     0.048 H 
ATOM     54  H34 non d ame     -11.401  13.766  66.478  0.00  0.00     0.048 H 
BRANCH  52  55
ATOM     55  C23 non d ame     -10.432  15.476  65.655  0.00  0.00     0.259 C 
ATOM     56  O7  non d ame     -11.244  15.586  64.794  0.00  0.00    -0.265 OA
BRANCH  55  57
ATOM     57  O8  non d ame      -9.463  16.497  65.858  0.00  0.00    -0.317 OA
BRANCH  57  58
ATOM     58  C29 non d ame     -10.005  17.725  66.352  0.00  0.00     0.052 C 
ATOM     59  H47 non d ame     -10.290  18.298  65.471  0.00  0.00     0.082 H 
ATOM     60  H48 non d ame     -10.761  17.441  67.085  0.00  0.00     0.082 H 
BRANCH  58  61
ATOM     61  C35 non d ame      -8.871  18.487  67.088  0.00  0.00    -0.034 A 
ATOM     62  C30 non d ame      -8.500  19.760  66.668  0.00  0.00    -0.075 A 
ATOM     63  C31 non d ame      -7.481  20.444  67.329  0.00  0.00    -0.082 A 
ATOM     64  H49 non d ame      -9.007  20.221  65.821  0.00  0.00     0.084 H 
ATOM     65  C32 non d ame      -6.831  19.850  68.414  0.00  0.00    -0.083 A 
ATOM     66  H50 non d ame      -7.194  21.442  66.998  0.00  0.00     0.083 H 
ATOM     67  C33 non d ame      -7.202  18.578  68.828  0.00  0.00    -0.082 A 
ATOM     68  H51 non d ame      -6.033  20.378  68.936  0.00  0.00     0.083 H 
ATOM     69  C34 non d ame      -8.222  17.891  68.171  0.00  0.00    -0.075 A 
ATOM     70  H52 non d ame      -6.691  18.115  69.673  0.00  0.00     0.083 H 
ATOM     71  H53 non d ame      -8.508  16.892  68.504  0.00  0.00     0.084 H 
ENDBRANCH  58  61
ENDBRANCH  57  58
ENDBRANCH  55  57
ENDBRANCH  52  55
ENDBRANCH  49  52
ENDBRANCH  47  49
BRANCH  47  72
ATOM     72  C24 non d ame     -11.660  15.230  69.941  0.00  0.00    -0.039 C 
ATOM     73  H35 non d ame     -10.673  15.568  70.257  0.00  0.00     0.036 H 
ATOM     74  H36 non d ame     -12.349  15.931  69.468  0.00  0.00     0.036 H 
BRANCH  72  75
ATOM     75  C25 non d ame     -12.397  14.647  71.238  0.00  0.00    -0.001 C 
ATOM     76  C26 non d ame     -13.974  14.332  70.894  0.00  0.00    -0.035 C 
ATOM     77  C27 non d ame     -14.752  14.923  71.830  0.00  0.00     0.085 C 
ATOM     78  H38 non d ame     -14.261  14.833  69.970  0.00  0.00     0.036 H 
ATOM     79  H39 non d ame     -14.180  13.269  71.024  0.00  0.00     0.036 H 
ATOM     80  N5  non d ame     -13.873  15.882  72.595  0.00  0.00    -0.049 N 
ATOM     81  H40 non d ame     -15.498  15.491  71.274  0.00  0.00     0.075 H 
ATOM     82  H41 non d ame     -15.065  14.120  72.498  0.00  0.00     0.075 H 
ATOM     83  C28 non d ame     -12.353  15.487  72.219  0.00  0.00     0.193 C 
ATOM     84  H42 non d ame     -14.065  16.803  72.227  0.00  0.00     0.280 HD
ATOM     85  H43 non d ame     -14.021  15.689  73.575  0.00  0.00     0.280 HD
ATOM     86  H44 non d ame     -11.733  14.935  72.926  0.00  0.00     0.129 H 
ATOM     87  H37 non d ame     -11.825  13.851  71.715  0.00  0.00     0.046 H 
BRANCH  83  88
ATOM     88  O6  non d ame     -11.606  16.660  71.890  0.00  0.00    -0.369 OA
ATOM     89  H45 non d ame     -10.684  16.427  71.765  0.00  0.00     0.212 HD
ENDBRANCH  83  88
ENDBRANCH  72  75
ENDBRANCH  47  72
ENDBRANCH  45  47
ENDBRANCH   1  43
BRANCH   1  90
ATOM     90  C16 non d ame     -11.950  10.249  71.081  0.00  0.00    -0.035 C 
ATOM     91  H21 non d ame     -11.112  10.500  71.731  0.00  0.00     0.037 H 
ATOM     92  H22 non d ame     -12.814  10.910  71.026  0.00  0.00     0.037 H 
BRANCH  90  93
ATOM     93  C17 non d ame     -12.484   8.863  71.563  0.00  0.00    -0.059 C 
ATOM     94  H23 non d ame     -12.604   8.231  70.684  0.00  0.00     0.038 H 
BRANCH  93  95
ATOM     95  C18 non d ame     -11.486   8.150  72.530  0.00  0.00    -0.073 C 
ATOM     96  H24 non d ame     -11.728   8.413  73.560  0.00  0.00     0.028 H 
ATOM     97  H25 non d ame     -11.565   7.071  72.403  0.00  0.00     0.028 H 
ATOM     98  H26 non d ame     -10.469   8.469  72.303  0.00  0.00     0.028 H 
ENDBRANCH  93  95
BRANCH  93  99
ATOM     99  C19 non d ame     -13.864   9.005  72.211  0.00  0.00    -0.073 C 
ATOM    100  H27 non d ame     -13.800   8.731  73.265  0.00  0.00     0.028 H 
ATOM    101  H28 non d ame     -14.203  10.037  72.123  0.00  0.00     0.028 H 
ATOM    102  H29 non d ame     -14.571   8.346  71.708  0.00  0.00     0.028 H 
ENDBRANCH  93  99
ENDBRANCH  90  93
ENDBRANCH   1  90
TORSDOF 26
ENDMDL
MODEL 11
REMARK VINA RESULT:      -6.4      4.127      8.634
REMARK  26 active torsions:
REMARK  status: ('A' for Active; 'I' for Inactive)
REMARK    1  A    between atoms: C2_2  and  C3_3 
REMARK    2  A    between atoms: C4_6  and  C5_7 
REMARK       I    between atoms: C5_7  and  N2_9 
REMARK    3  A    between atoms: N2_9  and  C6_10 
REMARK    4  A    between atoms: C6_10  and  C7_11 
REMARK    5  A    between atoms: C6_10  and  C8_13 
REMARK       I    between atoms: C7_11  and  N3_14 
REMARK    6  A    between atoms: N3_14  and  C9_15 
REMARK    7  A    between atoms: C9_15  and  C10_16 
REMARK    8  A    between atoms: C9_15  and  C11_18 
REMARK       I    between atoms: C10_16  and  N4_21 
REMARK    9  A    between atoms: C11_18  and  C12_19 
REMARK   10  A    between atoms: C11_18  and  C13_20 
REMARK   11  A    between atoms: N4_21  and  C14_22 
REMARK   12  A    between atoms: C14_22  and  C15_23 
REMARK   13  A    between atoms: C14_22  and  C16_25 
REMARK       I    between atoms: C15_23  and  N6_40 
REMARK   14  A    between atoms: C16_25  and  C17_26 
REMARK   15  A    between atoms: C17_26  and  C18_27 
REMARK   16  A    between atoms: C17_26  and  C19_28 
REMARK   17  A    between atoms: C20_29  and  C21_30 
REMARK   18  A    between atoms: C20_29  and  C24_33 
REMARK   19  A    between atoms: C20_29  and  N6_40 
REMARK   20  A    between atoms: C21_30  and  C22_31 
REMARK   21  A    between atoms: C22_31  and  C23_32 
REMARK   22  A    between atoms: C23_32  and  O8_43 
REMARK   23  A    between atoms: C24_33  and  C25_34 
REMARK   24  A    between atoms: C28_38  and  O6_39 
REMARK   25  A    between atoms: C29_42  and  O8_43 
REMARK   26  A    between atoms: C29_42  and  C35_49 
ROOT
ATOM      1  C14 non d ame     -10.130   8.585  69.228  0.00  0.00     0.089 C 
ATOM      2  H20 non d ame     -11.189   8.454  69.006  0.00  0.00     0.087 H 
ENDROOT
BRANCH   1   3
ATOM      3  N4  non d ame      -9.543   7.260  69.362  0.00  0.00    -0.346 N 
ATOM      4  C10 non d ame     -10.426   6.041  69.445  0.00  0.00     0.241 C 
ATOM      5  O4  non d ame     -11.608   6.151  69.403  0.00  0.00    -0.271 OA
ATOM      6  H19 non d ame      -8.536   7.188  69.399  0.00  0.00     0.163 HD
BRANCH   4   7
ATOM      7  C9  non d ame      -9.802   4.677  69.579  0.00  0.00     0.092 C 
ATOM      8  H11 non d ame     -10.270   3.997  68.867  0.00  0.00     0.088 H 
BRANCH   7   9
ATOM      9  N3  non d ame      -8.380   4.754  69.231  0.00  0.00    -0.346 N 
ATOM     10  C7  non d ame      -7.918   4.242  67.965  0.00  0.00     0.240 C 
ATOM     11  O3  non d ame      -8.677   3.762  67.213  0.00  0.00    -0.271 OA
ATOM     12  H10 non d ame      -7.713   5.162  69.870  0.00  0.00     0.163 HD
BRANCH  10  13
ATOM     13  C6  non d ame      -6.403   4.323  67.603  0.00  0.00     0.086 C 
ATOM     14  H6  non d ame      -6.009   3.382  67.218  0.00  0.00     0.086 H 
BRANCH  13  15
ATOM     15  N2  non d ame      -6.223   5.310  66.551  0.00  0.00    -0.343 N 
ATOM     16  C5  non d ame      -5.182   5.105  65.541  0.00  0.00     0.273 C 
ATOM     17  O2  non d ame      -4.494   4.145  65.585  0.00  0.00    -0.266 OA
ATOM     18  H5  non d ame      -6.813   6.128  66.521  0.00  0.00     0.163 HD
BRANCH  16  19
ATOM     19  C4  non d ame      -4.981   6.139  64.421  0.00  0.00     0.154 A 
ATOM     20  C1  non d ame      -4.501   7.480  64.559  0.00  0.00    -0.017 A 
ATOM     21  C2  non d ame      -4.503   8.004  63.247  0.00  0.00     0.077 A 
ATOM     22  H1  non d ame      -4.199   7.995  65.471  0.00  0.00     0.091 H 
ATOM     23  O1  non d ame      -4.933   7.064  62.455  0.00  0.00    -0.218 OA
ATOM     24  N1  non d ame      -5.219   5.967  63.118  0.00  0.00    -0.123 NA
BRANCH  21  25
ATOM     25  C3  non d ame      -4.077   9.406  62.835  0.00  0.00    -0.029 C 
ATOM     26  H2  non d ame      -2.988   9.467  62.821  0.00  0.00     0.036 H 
ATOM     27  H3  non d ame      -4.466   9.627  61.841  0.00  0.00     0.036 H 
ATOM     28  H4  non d ame      -4.472  10.131  63.548  0.00  0.00     0.036 H 
ENDBRANCH  21  25
ENDBRANCH  16  19
ENDBRANCH  13  15
BRANCH  13  29
ATOM     29  C8  non d ame      -5.612   4.720  68.823  0.00  0.00    -0.049 C 
ATOM     30  H7  non d ame      -4.735   4.078  68.913  0.00  0.00     0.030 H 
ATOM     31  H8  non d ame      -5.292   5.759  68.726  0.00  0.00     0.030 H 
ATOM     32  H9  non d ame      -6.233   4.612  69.710  0.00  0.00     0.030 H 
ENDBRANCH  13  29
ENDBRANCH  10  13
ENDBRANCH   7   9
BRANCH   7  33
ATOM     33  C11 non d ame      -9.949   4.180  71.047  0.00  0.00    -0.033 C 
ATOM     34  H12 non d ame     -10.989   4.323  71.339  0.00  0.00     0.042 H 
BRANCH  33  35
ATOM     35  C12 non d ame      -9.633   2.657  71.166  0.00  0.00    -0.071 C 
ATOM     36  H13 non d ame      -8.577   2.487  70.953  0.00  0.00     0.028 H 
ATOM     37  H14 non d ame      -9.858   2.317  72.177  0.00  0.00     0.028 H 
ATOM     38  H15 non d ame     -10.242   2.103  70.452  0.00  0.00     0.028 H 
ENDBRANCH  33  35
BRANCH  33  39
ATOM     39  C13 non d ame      -9.055   5.022  72.013  0.00  0.00    -0.071 C 
ATOM     40  H16 non d ame      -8.156   5.344  71.489  0.00  0.00     0.028 H 
ATOM     41  H17 non d ame      -9.611   5.895  72.355  0.00  0.00     0.028 H 
ATOM     42  H18 non d ame      -8.775   4.411  72.871  0.00  0.00     0.028 H 
ENDBRANCH  33  39
ENDBRANCH   7  33
ENDBRANCH   4   7
ENDBRANCH   1   3
BRANCH   1  43
ATOM     43  C15 non d ame      -9.383   9.345  68.094  0.00  0.00     0.240 C 
ATOM     44  O5  non d ame      -8.212   9.191  67.952  0.00  0.00    -0.271 OA
ATOM     45  N6  non d ame     -10.127  10.258  67.181  0.00  0.00    -0.355 N 
ATOM     46  H46 non d ame     -11.121  10.393  67.289  0.00  0.00     0.162 HD
BRANCH  45  47
ATOM     47  C20 non d ame      -9.402  10.972  66.108  0.00  0.00     0.013 C 
ATOM     48  H30 non d ame      -8.344  10.985  66.370  0.00  0.00     0.072 H 
BRANCH  47  49
ATOM     49  C21 non d ame      -9.926  12.386  66.005  0.00  0.00    -0.038 C 
ATOM     50  H31 non d ame      -9.045  13.028  66.002  0.00  0.00     0.036 H 
ATOM     51  H32 non d ame     -10.604  12.386  65.150  0.00  0.00     0.036 H 
BRANCH  49  52
ATOM     52  C22 non d ame     -10.768  12.804  67.230  0.00  0.00     0.018 C 
ATOM     53  H33 non d ame     -11.791  12.498  67.004  0.00  0.00     0.048 H 
ATOM     54  H34 non d ame     -10.254  12.388  68.097  0.00  0.00     0.048 H 
BRANCH  52  55
ATOM     55  C23 non d ame     -10.822  14.340  67.457  0.00  0.00     0.259 C 
ATOM     56  O7  non d ame     -10.864  15.085  66.533  0.00  0.00    -0.265 OA
BRANCH  55  57
ATOM     57  O8  non d ame     -10.805  14.849  68.785  0.00  0.00    -0.317 OA
BRANCH  57  58
ATOM     58  C29 non d ame     -11.982  15.579  69.145  0.00  0.00     0.052 C 
ATOM     59  H47 non d ame     -11.720  16.632  69.040  0.00  0.00     0.082 H 
ATOM     60  H48 non d ame     -12.786  15.156  68.543  0.00  0.00     0.082 H 
BRANCH  58  61
ATOM     61  C35 non d ame     -12.284  15.294  70.640  0.00  0.00    -0.034 A 
ATOM     62  C30 non d ame     -13.104  14.227  70.993  0.00  0.00    -0.075 A 
ATOM     63  C31 non d ame     -13.376  13.971  72.336  0.00  0.00    -0.082 A 
ATOM     64  H49 non d ame     -13.533  13.593  70.218  0.00  0.00     0.084 H 
ATOM     65  C32 non d ame     -12.826  14.787  73.327  0.00  0.00    -0.083 A 
ATOM     66  H50 non d ame     -14.017  13.133  72.609  0.00  0.00     0.083 H 
ATOM     67  C33 non d ame     -12.011  15.853  72.970  0.00  0.00    -0.082 A 
ATOM     68  H51 non d ame     -13.033  14.594  74.380  0.00  0.00     0.083 H 
ATOM     69  C34 non d ame     -11.734  16.111  71.629  0.00  0.00    -0.075 A 
ATOM     70  H52 non d ame     -11.585  16.490  73.746  0.00  0.00     0.083 H 
ATOM     71  H53 non d ame     -11.092  16.950  71.356  0.00  0.00     0.084 H 
ENDBRANCH  58  61
ENDBRANCH  57  58
ENDBRANCH  55  57
ENDBRANCH  52  55
ENDBRANCH  49  52
ENDBRANCH  47  49
BRANCH  47  72
ATOM     72  C24 non d ame      -9.610  10.252  64.777  0.00  0.00    -0.039 C 
ATOM     73  H35 non d ame     -10.254   9.403  65.003  0.00  0.00     0.036 H 
ATOM     74  H36 non d ame      -9.946  11.021  64.081  0.00  0.00     0.036 H 
BRANCH  72  75
ATOM     75  C25 non d ame      -8.236   9.662  64.201  0.00  0.00    -0.001 C 
ATOM     76  C26 non d ame      -8.147   9.927  62.581  0.00  0.00    -0.035 C 
ATOM     77  C27 non d ame      -7.857   8.757  61.963  0.00  0.00     0.085 C 
ATOM     78  H38 non d ame      -9.132  10.184  62.190  0.00  0.00     0.036 H 
ATOM     79  H39 non d ame      -7.288  10.557  62.351  0.00  0.00     0.036 H 
ATOM     80  N5  non d ame      -8.061   7.659  62.977  0.00  0.00    -0.049 N 
ATOM     81  H40 non d ame      -8.600   8.653  61.172  0.00  0.00     0.075 H 
ATOM     82  H41 non d ame      -6.798   8.816  61.712  0.00  0.00     0.075 H 
ATOM     83  C28 non d ame      -8.147   8.391  64.414  0.00  0.00     0.193 C 
ATOM     84  H42 non d ame      -8.959   7.244  62.774  0.00  0.00     0.280 HD
ATOM     85  H43 non d ame      -7.227   7.091  62.956  0.00  0.00     0.280 HD
ATOM     86  H44 non d ame      -7.302   8.363  65.102  0.00  0.00     0.129 H 
ATOM     87  H37 non d ame      -7.375   9.961  64.800  0.00  0.00     0.046 H 
BRANCH  83  88
ATOM     88  O6  non d ame      -9.260   7.890  65.156  0.00  0.00    -0.369 OA
ATOM     89  H45 non d ame      -9.379   8.416  65.949  0.00  0.00     0.212 HD
ENDBRANCH  83  88
ENDBRANCH  72  75
ENDBRANCH  47  72
ENDBRANCH  45  47
ENDBRANCH   1  43
BRANCH   1  90
ATOM     90  C16 non d ame      -9.967   9.336  70.540  0.00  0.00    -0.035 C 
ATOM     91  H21 non d ame      -9.572   8.604  71.244  0.00  0.00     0.037 H 
ATOM     92  H22 non d ame      -9.386  10.224  70.294  0.00  0.00     0.037 H 
BRANCH  90  93
ATOM     93  C17 non d ame     -11.316   9.844  71.142  0.00  0.00    -0.059 C 
ATOM     94  H23 non d ame     -11.077  10.502  71.978  0.00  0.00     0.038 H 
BRANCH  93  95
ATOM     95  C18 non d ame     -12.151  10.666  70.111  0.00  0.00    -0.073 C 
ATOM     96  H24 non d ame     -11.650  11.614  69.910  0.00  0.00     0.028 H 
ATOM     97  H25 non d ame     -12.241  10.101  69.183  0.00  0.00     0.028 H 
ATOM     98  H26 non d ame     -13.144  10.858  70.516  0.00  0.00     0.028 H 
ENDBRANCH  93  95
BRANCH  93  99
ATOM     99  C19 non d ame     -12.136   8.678  71.703  0.00  0.00    -0.073 C 
ATOM    100  H27 non d ame     -12.120   7.850  70.995  0.00  0.00     0.028 H 
ATOM    101  H28 non d ame     -11.707   8.355  72.652  0.00  0.00     0.028 H 
ATOM    102  H29 non d ame     -13.165   9.001  71.860  0.00  0.00     0.028 H 
ENDBRANCH  93  99
ENDBRANCH  90  93
ENDBRANCH   1  90
TORSDOF 26
ENDMDL
MODEL 12
REMARK VINA RESULT:      -6.4      3.585      9.187
REMARK  26 active torsions:
REMARK  status: ('A' for Active; 'I' for Inactive)
REMARK    1  A    between atoms: C2_2  and  C3_3 
REMARK    2  A    between atoms: C4_6  and  C5_7 
REMARK       I    between atoms: C5_7  and  N2_9 
REMARK    3  A    between atoms: N2_9  and  C6_10 
REMARK    4  A    between atoms: C6_10  and  C7_11 
REMARK    5  A    between atoms: C6_10  and  C8_13 
REMARK       I    between atoms: C7_11  and  N3_14 
REMARK    6  A    between atoms: N3_14  and  C9_15 
REMARK    7  A    between atoms: C9_15  and  C10_16 
REMARK    8  A    between atoms: C9_15  and  C11_18 
REMARK       I    between atoms: C10_16  and  N4_21 
REMARK    9  A    between atoms: C11_18  and  C12_19 
REMARK   10  A    between atoms: C11_18  and  C13_20 
REMARK   11  A    between atoms: N4_21  and  C14_22 
REMARK   12  A    between atoms: C14_22  and  C15_23 
REMARK   13  A    between atoms: C14_22  and  C16_25 
REMARK       I    between atoms: C15_23  and  N6_40 
REMARK   14  A    between atoms: C16_25  and  C17_26 
REMARK   15  A    between atoms: C17_26  and  C18_27 
REMARK   16  A    between atoms: C17_26  and  C19_28 
REMARK   17  A    between atoms: C20_29  and  C21_30 
REMARK   18  A    between atoms: C20_29  and  C24_33 
REMARK   19  A    between atoms: C20_29  and  N6_40 
REMARK   20  A    between atoms: C21_30  and  C22_31 
REMARK   21  A    between atoms: C22_31  and  C23_32 
REMARK   22  A    between atoms: C23_32  and  O8_43 
REMARK   23  A    between atoms: C24_33  and  C25_34 
REMARK   24  A    between atoms: C28_38  and  O6_39 
REMARK   25  A    between atoms: C29_42  and  O8_43 
REMARK   26  A    between atoms: C29_42  and  C35_49 
ROOT
ATOM      1  C14 non d ame      -8.229   8.958  63.142  0.00  0.00     0.089 C 
ATOM      2  H20 non d ame      -9.083   9.298  62.557  0.00  0.00     0.087 H 
ENDROOT
BRANCH   1   3
ATOM      3  N4  non d ame      -8.295   9.615  64.439  0.00  0.00    -0.346 N 
ATOM      4  C10 non d ame      -9.484  10.470  64.800  0.00  0.00     0.241 C 
ATOM      5  O4  non d ame     -10.375  10.615  64.029  0.00  0.00    -0.271 OA
ATOM      6  H19 non d ame      -7.525   9.480  65.080  0.00  0.00     0.163 HD
BRANCH   4   7
ATOM      7  C9  non d ame      -9.539  11.138  66.148  0.00  0.00     0.092 C 
ATOM      8  H11 non d ame      -8.586  11.632  66.343  0.00  0.00     0.088 H 
BRANCH   7   9
ATOM      9  N3  non d ame     -10.571  12.179  66.137  0.00  0.00    -0.346 N 
ATOM     10  C7  non d ame     -10.246  13.522  66.549  0.00  0.00     0.240 C 
ATOM     11  O3  non d ame      -9.158  13.783  66.895  0.00  0.00    -0.271 OA
ATOM     12  H10 non d ame     -11.514  11.969  65.842  0.00  0.00     0.163 HD
BRANCH  10  13
ATOM     13  C6  non d ame     -11.350  14.624  66.537  0.00  0.00     0.086 C 
ATOM     14  H6  non d ame     -11.947  14.634  67.449  0.00  0.00     0.086 H 
BRANCH  13  15
ATOM     15  N2  non d ame     -10.713  15.928  66.444  0.00  0.00    -0.343 N 
ATOM     16  C5  non d ame     -10.843  16.874  67.555  0.00  0.00     0.273 C 
ATOM     17  O2  non d ame     -11.463  16.578  68.516  0.00  0.00    -0.266 OA
ATOM     18  H5  non d ame     -10.187  16.173  65.619  0.00  0.00     0.163 HD
BRANCH  16  19
ATOM     19  C4  non d ame     -10.173  18.255  67.472  0.00  0.00     0.154 A 
ATOM     20  C1  non d ame      -8.769  18.536  67.462  0.00  0.00    -0.017 A 
ATOM     21  C2  non d ame      -8.681  19.943  67.374  0.00  0.00     0.077 A 
ATOM     22  H1  non d ame      -7.942  17.827  67.512  0.00  0.00     0.091 H 
ATOM     23  O1  non d ame      -9.896  20.406  67.336  0.00  0.00    -0.218 OA
ATOM     24  N1  non d ame     -10.784  19.440  67.393  0.00  0.00    -0.123 NA
BRANCH  21  25
ATOM     25  C3  non d ame      -7.400  20.764  67.329  0.00  0.00    -0.029 C 
ATOM     26  H2  non d ame      -6.869  20.561  66.398  0.00  0.00     0.036 H 
ATOM     27  H3  non d ame      -7.646  21.824  67.382  0.00  0.00     0.036 H 
ATOM     28  H4  non d ame      -6.765  20.497  68.175  0.00  0.00     0.036 H 
ENDBRANCH  21  25
ENDBRANCH  16  19
ENDBRANCH  13  15
BRANCH  13  29
ATOM     29  C8  non d ame     -12.264  14.412  65.358  0.00  0.00    -0.049 C 
ATOM     30  H7  non d ame     -11.743  14.684  64.439  0.00  0.00     0.030 H 
ATOM     31  H8  non d ame     -12.559  13.363  65.311  0.00  0.00     0.030 H 
ATOM     32  H9  non d ame     -13.151  15.035  65.469  0.00  0.00     0.030 H 
ENDBRANCH  13  29
ENDBRANCH  10  13
ENDBRANCH   7   9
BRANCH   7  33
ATOM     33  C11 non d ame      -9.883  10.081  67.238  0.00  0.00    -0.033 C 
ATOM     34  H12 non d ame      -9.979   9.116  66.741  0.00  0.00     0.042 H 
BRANCH  33  35
ATOM     35  C12 non d ame      -8.737   9.955  68.290  0.00  0.00    -0.071 C 
ATOM     36  H13 non d ame      -9.168   9.803  69.280  0.00  0.00     0.028 H 
ATOM     37  H14 non d ame      -8.103   9.107  68.036  0.00  0.00     0.028 H 
ATOM     38  H15 non d ame      -8.142  10.868  68.288  0.00  0.00     0.028 H 
ENDBRANCH  33  35
BRANCH  33  39
ATOM     39  C13 non d ame     -11.248  10.410  67.924  0.00  0.00    -0.071 C 
ATOM     40  H16 non d ame     -12.001   9.694  67.596  0.00  0.00     0.028 H 
ATOM     41  H17 non d ame     -11.135  10.351  69.007  0.00  0.00     0.028 H 
ATOM     42  H18 non d ame     -11.559  11.417  67.646  0.00  0.00     0.028 H 
ENDBRANCH  33  39
ENDBRANCH   7  33
ENDBRANCH   4   7
ENDBRANCH   1   3
BRANCH   1  43
ATOM     43  C15 non d ame      -8.246   7.418  63.366  0.00  0.00     0.240 C 
ATOM     44  O5  non d ame      -7.994   6.687  62.463  0.00  0.00    -0.271 OA
ATOM     45  N6  non d ame      -8.568   6.855  64.708  0.00  0.00    -0.355 N 
ATOM     46  H46 non d ame      -8.779   7.467  65.484  0.00  0.00     0.162 HD
BRANCH  45  47
ATOM     47  C20 non d ame      -8.578   5.390  64.905  0.00  0.00     0.013 C 
ATOM     48  H30 non d ame      -8.667   4.921  63.925  0.00  0.00     0.072 H 
BRANCH  47  49
ATOM     49  C21 non d ame      -9.760   5.009  65.768  0.00  0.00    -0.038 C 
ATOM     50  H31 non d ame     -10.569   4.777  65.074  0.00  0.00     0.036 H 
ATOM     51  H32 non d ame      -9.391   4.244  66.451  0.00  0.00     0.036 H 
BRANCH  49  52
ATOM     52  C22 non d ame     -10.260   6.175  66.648  0.00  0.00     0.018 C 
ATOM     53  H33 non d ame      -9.460   6.916  66.639  0.00  0.00     0.048 H 
ATOM     54  H34 non d ame     -11.247   6.433  66.264  0.00  0.00     0.048 H 
BRANCH  52  55
ATOM     55  C23 non d ame     -10.467   5.788  68.139  0.00  0.00     0.259 C 
ATOM     56  O7  non d ame      -9.739   5.011  68.666  0.00  0.00    -0.265 OA
BRANCH  55  57
ATOM     57  O8  non d ame     -11.545   6.364  68.866  0.00  0.00    -0.317 OA
BRANCH  57  58
ATOM     58  C29 non d ame     -11.436   6.220  70.285  0.00  0.00     0.052 C 
ATOM     59  H47 non d ame     -11.979   5.309  70.532  0.00  0.00     0.082 H 
ATOM     60  H48 non d ame     -10.371   6.297  70.507  0.00  0.00     0.082 H 
BRANCH  58  61
ATOM     61  C35 non d ame     -12.164   7.421  70.945  0.00  0.00    -0.034 A 
ATOM     62  C30 non d ame     -13.450   7.264  71.450  0.00  0.00    -0.075 A 
ATOM     63  C31 non d ame     -14.104   8.342  72.043  0.00  0.00    -0.082 A 
ATOM     64  H49 non d ame     -13.946   6.296  71.380  0.00  0.00     0.084 H 
ATOM     65  C32 non d ame     -13.467   9.583  72.129  0.00  0.00    -0.083 A 
ATOM     66  H50 non d ame     -15.111   8.215  72.439  0.00  0.00     0.083 H 
ATOM     67  C33 non d ame     -12.184   9.737  71.621  0.00  0.00    -0.082 A 
ATOM     68  H51 non d ame     -13.971  10.432  72.592  0.00  0.00     0.083 H 
ATOM     69  C34 non d ame     -11.526   8.660  71.030  0.00  0.00    -0.075 A 
ATOM     70  H52 non d ame     -11.691  10.707  71.688  0.00  0.00     0.083 H 
ATOM     71  H53 non d ame     -10.517   8.788  70.634  0.00  0.00     0.084 H 
ENDBRANCH  58  61
ENDBRANCH  57  58
ENDBRANCH  55  57
ENDBRANCH  52  55
ENDBRANCH  49  52
ENDBRANCH  47  49
BRANCH  47  72
ATOM     72  C24 non d ame      -7.285   4.951  65.589  0.00  0.00    -0.039 C 
ATOM     73  H35 non d ame      -7.581   4.188  66.308  0.00  0.00     0.036 H 
ATOM     74  H36 non d ame      -6.599   4.700  64.780  0.00  0.00     0.036 H 
BRANCH  72  75
ATOM     75  C25 non d ame      -6.618   6.149  66.418  0.00  0.00    -0.001 C 
ATOM     76  C26 non d ame      -5.131   6.494  65.808  0.00  0.00    -0.035 C 
ATOM     77  C27 non d ame      -4.233   6.498  66.821  0.00  0.00     0.085 C 
ATOM     78  H38 non d ame      -4.792   5.679  65.169  0.00  0.00     0.036 H 
ATOM     79  H39 non d ame      -5.107   7.521  65.441  0.00  0.00     0.036 H 
ATOM     80  N5  non d ame      -4.910   5.868  68.014  0.00  0.00    -0.049 N 
ATOM     81  H40 non d ame      -3.419   5.852  66.492  0.00  0.00     0.075 H 
ATOM     82  H41 non d ame      -4.042   7.549  67.036  0.00  0.00     0.075 H 
ATOM     83  C28 non d ame      -6.486   5.837  67.665  0.00  0.00     0.193 C 
ATOM     84  H42 non d ame      -4.573   4.917  68.064  0.00  0.00     0.280 HD
ATOM     85  H43 non d ame      -4.765   6.496  68.791  0.00  0.00     0.280 HD
ATOM     86  H44 non d ame      -7.169   6.553  68.123  0.00  0.00     0.129 H 
ATOM     87  H37 non d ame      -7.303   6.985  66.559  0.00  0.00     0.046 H 
BRANCH  83  88
ATOM     88  O6  non d ame      -7.030   4.549  67.959  0.00  0.00    -0.369 OA
ATOM     89  H45 non d ame      -6.571   4.173  68.713  0.00  0.00     0.212 HD
ENDBRANCH  83  88
ENDBRANCH  72  75
ENDBRANCH  47  72
ENDBRANCH  45  47
ENDBRANCH   1  43
BRANCH   1  90
ATOM     90  C16 non d ame      -6.937   9.359  62.447  0.00  0.00    -0.035 C 
ATOM     91  H21 non d ame      -6.792   8.619  61.660  0.00  0.00     0.037 H 
ATOM     92  H22 non d ame      -7.062  10.410  62.190  0.00  0.00     0.037 H 
BRANCH  90  93
ATOM     93  C17 non d ame      -5.678   9.275  63.368  0.00  0.00    -0.059 C 
ATOM     94  H23 non d ame      -6.007   8.924  64.346  0.00  0.00     0.038 H 
BRANCH  93  95
ATOM     95  C18 non d ame      -4.619   8.263  62.829  0.00  0.00    -0.073 C 
ATOM     96  H24 non d ame      -4.961   7.850  61.879  0.00  0.00     0.028 H 
ATOM     97  H25 non d ame      -3.669   8.777  62.678  0.00  0.00     0.028 H 
ATOM     98  H26 non d ame      -4.485   7.457  63.550  0.00  0.00     0.028 H 
ENDBRANCH  93  95
BRANCH  93  99
ATOM     99  C19 non d ame      -5.056  10.660  63.570  0.00  0.00    -0.073 C 
ATOM    100  H27 non d ame      -5.793  11.326  64.019  0.00  0.00     0.028 H 
ATOM    101  H28 non d ame      -4.191  10.577  64.228  0.00  0.00     0.028 H 
ATOM    102  H29 non d ame      -4.744  11.061  62.607  0.00  0.00     0.028 H 
ENDBRANCH  93  99
ENDBRANCH  90  93
ENDBRANCH   1  90
TORSDOF 26
ENDMDL
MODEL 13
REMARK VINA RESULT:      -6.4      4.314      9.041
REMARK  26 active torsions:
REMARK  status: ('A' for Active; 'I' for Inactive)
REMARK    1  A    between atoms: C2_2  and  C3_3 
REMARK    2  A    between atoms: C4_6  and  C5_7 
REMARK       I    between atoms: C5_7  and  N2_9 
REMARK    3  A    between atoms: N2_9  and  C6_10 
REMARK    4  A    between atoms: C6_10  and  C7_11 
REMARK    5  A    between atoms: C6_10  and  C8_13 
REMARK       I    between atoms: C7_11  and  N3_14 
REMARK    6  A    between atoms: N3_14  and  C9_15 
REMARK    7  A    between atoms: C9_15  and  C10_16 
REMARK    8  A    between atoms: C9_15  and  C11_18 
REMARK       I    between atoms: C10_16  and  N4_21 
REMARK    9  A    between atoms: C11_18  and  C12_19 
REMARK   10  A    between atoms: C11_18  and  C13_20 
REMARK   11  A    between atoms: N4_21  and  C14_22 
REMARK   12  A    between atoms: C14_22  and  C15_23 
REMARK   13  A    between atoms: C14_22  and  C16_25 
REMARK       I    between atoms: C15_23  and  N6_40 
REMARK   14  A    between atoms: C16_25  and  C17_26 
REMARK   15  A    between atoms: C17_26  and  C18_27 
REMARK   16  A    between atoms: C17_26  and  C19_28 
REMARK   17  A    between atoms: C20_29  and  C21_30 
REMARK   18  A    between atoms: C20_29  and  C24_33 
REMARK   19  A    between atoms: C20_29  and  N6_40 
REMARK   20  A    between atoms: C21_30  and  C22_31 
REMARK   21  A    between atoms: C22_31  and  C23_32 
REMARK   22  A    between atoms: C23_32  and  O8_43 
REMARK   23  A    between atoms: C24_33  and  C25_34 
REMARK   24  A    between atoms: C28_38  and  O6_39 
REMARK   25  A    between atoms: C29_42  and  O8_43 
REMARK   26  A    between atoms: C29_42  and  C35_49 
ROOT
ATOM      1  C14 non d ame     -11.316   6.614  69.867  0.00  0.00     0.089 C 
ATOM      2  H20 non d ame     -12.371   6.654  69.597  0.00  0.00     0.087 H 
ENDROOT
BRANCH   1   3
ATOM      3  N4  non d ame     -10.700   5.558  69.079  0.00  0.00    -0.346 N 
ATOM      4  C10 non d ame     -10.723   5.619  67.572  0.00  0.00     0.241 C 
ATOM      5  O4  non d ame     -11.247   6.529  67.017  0.00  0.00    -0.271 OA
ATOM      6  H19 non d ame     -10.262   4.791  69.571  0.00  0.00     0.163 HD
BRANCH   4   7
ATOM      7  C9  non d ame     -10.076   4.520  66.772  0.00  0.00     0.092 C 
ATOM      8  H11 non d ame     -10.826   3.770  66.521  0.00  0.00     0.088 H 
BRANCH   7   9
ATOM      9  N3  non d ame      -9.572   5.067  65.508  0.00  0.00    -0.346 N 
ATOM     10  C7  non d ame      -9.902   4.423  64.261  0.00  0.00     0.240 C 
ATOM     11  O3  non d ame     -10.571   3.462  64.256  0.00  0.00    -0.271 OA
ATOM     12  H10 non d ame      -8.993   5.893  65.498  0.00  0.00     0.163 HD
BRANCH  10  13
ATOM     13  C6  non d ame      -9.360   5.007  62.921  0.00  0.00     0.086 C 
ATOM     14  H6  non d ame      -9.949   5.850  62.558  0.00  0.00     0.086 H 
BRANCH  13  15
ATOM     15  N2  non d ame      -8.011   5.505  63.135  0.00  0.00    -0.343 N 
ATOM     16  C5  non d ame      -7.722   6.924  62.912  0.00  0.00     0.273 C 
ATOM     17  O2  non d ame      -8.581   7.655  62.558  0.00  0.00    -0.266 OA
ATOM     18  H5  non d ame      -7.283   4.873  63.435  0.00  0.00     0.163 HD
BRANCH  16  19
ATOM     19  C4  non d ame      -6.302   7.464  63.137  0.00  0.00     0.154 A 
ATOM     20  C1  non d ame      -5.675   8.557  62.457  0.00  0.00    -0.017 A 
ATOM     21  C2  non d ame      -4.385   8.647  63.026  0.00  0.00     0.077 A 
ATOM     22  H1  non d ame      -6.092   9.187  61.672  0.00  0.00     0.091 H 
ATOM     23  O1  non d ame      -4.292   7.713  63.928  0.00  0.00    -0.218 OA
ATOM     24  N1  non d ame      -5.398   7.009  64.009  0.00  0.00    -0.123 NA
BRANCH  21  25
ATOM     25  C3  non d ame      -3.304   9.654  62.655  0.00  0.00    -0.029 C 
ATOM     26  H2  non d ame      -2.783   9.314  61.760  0.00  0.00     0.036 H 
ATOM     27  H3  non d ame      -3.763  10.624  62.463  0.00  0.00     0.036 H 
ATOM     28  H4  non d ame      -2.594   9.745  63.477  0.00  0.00     0.036 H 
ENDBRANCH  21  25
ENDBRANCH  16  19
ENDBRANCH  13  15
BRANCH  13  29
ATOM     29  C8  non d ame      -9.351   3.930  61.866  0.00  0.00    -0.049 C 
ATOM     30  H7  non d ame      -8.412   3.378  61.918  0.00  0.00     0.030 H 
ATOM     31  H8  non d ame     -10.184   3.247  62.037  0.00  0.00     0.030 H 
ATOM     32  H9  non d ame      -9.450   4.385  60.881  0.00  0.00     0.030 H 
ENDBRANCH  13  29
ENDBRANCH  10  13
ENDBRANCH   7   9
BRANCH   7  33
ATOM     33  C11 non d ame      -8.892   3.916  67.582  0.00  0.00    -0.033 C 
ATOM     34  H12 non d ame      -9.078   4.120  68.637  0.00  0.00     0.042 H 
BRANCH  33  35
ATOM     35  C12 non d ame      -8.816   2.367  67.410  0.00  0.00    -0.071 C 
ATOM     36  H13 non d ame      -9.774   1.996  67.044  0.00  0.00     0.028 H 
ATOM     37  H14 non d ame      -8.033   2.119  66.694  0.00  0.00     0.028 H 
ATOM     38  H15 non d ame      -8.590   1.906  68.371  0.00  0.00     0.028 H 
ENDBRANCH  33  35
BRANCH  33  39
ATOM     39  C13 non d ame      -7.541   4.596  67.189  0.00  0.00    -0.071 C 
ATOM     40  H16 non d ame      -7.101   5.065  68.069  0.00  0.00     0.028 H 
ATOM     41  H17 non d ame      -6.856   3.845  66.796  0.00  0.00     0.028 H 
ATOM     42  H18 non d ame      -7.726   5.354  66.428  0.00  0.00     0.028 H 
ENDBRANCH  33  39
ENDBRANCH   7  33
ENDBRANCH   4   7
ENDBRANCH   1   3
BRANCH   1  43
ATOM     43  C15 non d ame     -10.581   7.952  69.563  0.00  0.00     0.240 C 
ATOM     44  O5  non d ame      -9.504   8.153  70.026  0.00  0.00    -0.271 OA
ATOM     45  N6  non d ame     -11.216   8.978  68.689  0.00  0.00    -0.355 N 
ATOM     46  H46 non d ame     -12.128   8.817  68.287  0.00  0.00     0.162 HD
BRANCH  45  47
ATOM     47  C20 non d ame     -10.504  10.244  68.408  0.00  0.00     0.013 C 
ATOM     48  H30 non d ame      -9.841  10.448  69.249  0.00  0.00     0.072 H 
BRANCH  47  49
ATOM     49  C21 non d ame     -11.510  11.362  68.260  0.00  0.00    -0.038 C 
ATOM     50  H31 non d ame     -12.428  10.888  67.910  0.00  0.00     0.036 H 
ATOM     51  H32 non d ame     -11.499  11.895  69.212  0.00  0.00     0.036 H 
BRANCH  49  52
ATOM     52  C22 non d ame     -11.109  12.390  67.180  0.00  0.00     0.018 C 
ATOM     53  H33 non d ame     -10.019  12.415  67.186  0.00  0.00     0.048 H 
ATOM     54  H34 non d ame     -11.643  12.093  66.277  0.00  0.00     0.048 H 
BRANCH  52  55
ATOM     55  C23 non d ame     -11.571  13.840  67.495  0.00  0.00     0.259 C 
ATOM     56  O7  non d ame     -12.278  14.425  66.740  0.00  0.00    -0.265 OA
BRANCH  55  57
ATOM     57  O8  non d ame     -11.128  14.469  68.691  0.00  0.00    -0.317 OA
BRANCH  57  58
ATOM     58  C29 non d ame     -11.980  15.525  69.145  0.00  0.00     0.052 C 
ATOM     59  H47 non d ame     -11.386  16.436  69.071  0.00  0.00     0.082 H 
ATOM     60  H48 non d ame     -12.901  15.428  68.571  0.00  0.00     0.082 H 
BRANCH  58  61
ATOM     61  C35 non d ame     -12.304  15.270  70.641  0.00  0.00    -0.034 A 
ATOM     62  C30 non d ame     -11.700  16.043  71.627  0.00  0.00    -0.075 A 
ATOM     63  C31 non d ame     -11.991  15.814  72.970  0.00  0.00    -0.082 A 
ATOM     64  H49 non d ame     -10.998  16.828  71.347  0.00  0.00     0.084 H 
ATOM     65  C32 non d ame     -12.890  14.804  73.327  0.00  0.00    -0.083 A 
ATOM     66  H50 non d ame     -11.517  16.422  73.740  0.00  0.00     0.083 H 
ATOM     67  C33 non d ame     -13.488  14.033  72.340  0.00  0.00    -0.082 A 
ATOM     68  H51 non d ame     -13.123  14.618  74.375  0.00  0.00     0.083 H 
ATOM     69  C34 non d ame     -13.202  14.261  70.996  0.00  0.00    -0.075 A 
ATOM     70  H52 non d ame     -14.187  13.245  72.622  0.00  0.00     0.083 H 
ATOM     71  H53 non d ame     -13.677  13.651  70.226  0.00  0.00     0.084 H 
ENDBRANCH  58  61
ENDBRANCH  57  58
ENDBRANCH  55  57
ENDBRANCH  52  55
ENDBRANCH  49  52
ENDBRANCH  47  49
BRANCH  47  72
ATOM     72  C24 non d ame      -9.698  10.108  67.118  0.00  0.00    -0.039 C 
ATOM     73  H35 non d ame     -10.048   9.187  66.653  0.00  0.00     0.036 H 
ATOM     74  H36 non d ame      -9.817  11.059  66.600  0.00  0.00     0.036 H 
BRANCH  72  75
ATOM     75  C25 non d ame      -8.134   9.923  67.413  0.00  0.00    -0.001 C 
ATOM     76  C26 non d ame      -7.283  11.139  66.706  0.00  0.00    -0.035 C 
ATOM     77  C27 non d ame      -6.284  10.601  65.967  0.00  0.00     0.085 C 
ATOM     78  H38 non d ame      -7.902  11.647  65.966  0.00  0.00     0.036 H 
ATOM     79  H39 non d ame      -6.756  11.718  67.465  0.00  0.00     0.036 H 
ATOM     80  N5  non d ame      -6.573   9.125  65.842  0.00  0.00    -0.049 N 
ATOM     81  H40 non d ame      -6.366  11.064  64.983  0.00  0.00     0.075 H 
ATOM     82  H41 non d ame      -5.379  10.736  66.559  0.00  0.00     0.075 H 
ATOM     83  C28 non d ame      -7.701   8.798  66.950  0.00  0.00     0.193 C 
ATOM     84  H42 non d ame      -6.974   8.988  64.925  0.00  0.00     0.280 HD
ATOM     85  H43 non d ame      -5.723   8.643  66.098  0.00  0.00     0.280 HD
ATOM     86  H44 non d ame      -7.435   8.290  67.878  0.00  0.00     0.129 H 
ATOM     87  H37 non d ame      -7.933   9.724  68.465  0.00  0.00     0.046 H 
BRANCH  83  88
ATOM     88  O6  non d ame      -8.746   8.014  66.372  0.00  0.00    -0.369 OA
ATOM     89  H45 non d ame      -8.438   7.114  66.244  0.00  0.00     0.212 HD
ENDBRANCH  83  88
ENDBRANCH  72  75
ENDBRANCH  47  72
ENDBRANCH  45  47
ENDBRANCH   1  43
BRANCH   1  90
ATOM     90  C16 non d ame     -11.176   6.279  71.344  0.00  0.00    -0.035 C 
ATOM     91  H21 non d ame     -10.681   7.142  71.790  0.00  0.00     0.037 H 
ATOM     92  H22 non d ame     -12.176   5.995  71.672  0.00  0.00     0.037 H 
BRANCH  90  93
ATOM     93  C17 non d ame     -10.254   5.050  71.622  0.00  0.00    -0.059 C 
ATOM     94  H23 non d ame     -10.198   4.464  70.705  0.00  0.00     0.038 H 
BRANCH  93  95
ATOM     95  C18 non d ame      -8.801   5.476  72.005  0.00  0.00    -0.073 C 
ATOM     96  H24 non d ame      -8.832   6.413  72.561  0.00  0.00     0.028 H 
ATOM     97  H25 non d ame      -8.346   4.702  72.623  0.00  0.00     0.028 H 
ATOM     98  H26 non d ame      -8.211   5.610  71.098  0.00  0.00     0.028 H 
ENDBRANCH  93  95
BRANCH  93  99
ATOM     99  C19 non d ame     -10.859   4.146  72.701  0.00  0.00    -0.073 C 
ATOM    100  H27 non d ame     -10.248   4.199  73.602  0.00  0.00     0.028 H 
ATOM    101  H28 non d ame     -11.872   4.479  72.927  0.00  0.00     0.028 H 
ATOM    102  H29 non d ame     -10.885   3.118  72.340  0.00  0.00     0.028 H 
ENDBRANCH  93  99
ENDBRANCH  90  93
ENDBRANCH   1  90
TORSDOF 26
ENDMDL
MODEL 14
REMARK VINA RESULT:      -6.4      3.403      7.953
REMARK  26 active torsions:
REMARK  status: ('A' for Active; 'I' for Inactive)
REMARK    1  A    between atoms: C2_2  and  C3_3 
REMARK    2  A    between atoms: C4_6  and  C5_7 
REMARK       I    between atoms: C5_7  and  N2_9 
REMARK    3  A    between atoms: N2_9  and  C6_10 
REMARK    4  A    between atoms: C6_10  and  C7_11 
REMARK    5  A    between atoms: C6_10  and  C8_13 
REMARK       I    between atoms: C7_11  and  N3_14 
REMARK    6  A    between atoms: N3_14  and  C9_15 
REMARK    7  A    between atoms: C9_15  and  C10_16 
REMARK    8  A    between atoms: C9_15  and  C11_18 
REMARK       I    between atoms: C10_16  and  N4_21 
REMARK    9  A    between atoms: C11_18  and  C12_19 
REMARK   10  A    between atoms: C11_18  and  C13_20 
REMARK   11  A    between atoms: N4_21  and  C14_22 
REMARK   12  A    between atoms: C14_22  and  C15_23 
REMARK   13  A    between atoms: C14_22  and  C16_25 
REMARK       I    between atoms: C15_23  and  N6_40 
REMARK   14  A    between atoms: C16_25  and  C17_26 
REMARK   15  A    between atoms: C17_26  and  C18_27 
REMARK   16  A    between atoms: C17_26  and  C19_28 
REMARK   17  A    between atoms: C20_29  and  C21_30 
REMARK   18  A    between atoms: C20_29  and  C24_33 
REMARK   19  A    between atoms: C20_29  and  N6_40 
REMARK   20  A    between atoms: C21_30  and  C22_31 
REMARK   21  A    between atoms: C22_31  and  C23_32 
REMARK   22  A    between atoms: C23_32  and  O8_43 
REMARK   23  A    between atoms: C24_33  and  C25_34 
REMARK   24  A    between atoms: C28_38  and  O6_39 
REMARK   25  A    between atoms: C29_42  and  O8_43 
REMARK   26  A    between atoms: C29_42  and  C35_49 
ROOT
ATOM      1  C14 non d ame     -10.371   9.165  69.672  0.00  0.00     0.089 C 
ATOM      2  H20 non d ame     -11.309   9.194  69.117  0.00  0.00     0.087 H 
ENDROOT
BRANCH   1   3
ATOM      3  N4  non d ame      -9.829   7.821  69.549  0.00  0.00    -0.346 N 
ATOM      4  C10 non d ame     -10.752   6.638  69.397  0.00  0.00     0.241 C 
ATOM      5  O4  non d ame     -11.929   6.794  69.378  0.00  0.00    -0.271 OA
ATOM      6  H19 non d ame      -8.825   7.709  69.570  0.00  0.00     0.163 HD
BRANCH   4   7
ATOM      7  C9  non d ame     -10.174   5.254  69.265  0.00  0.00     0.092 C 
ATOM      8  H11 non d ame     -10.941   4.579  68.884  0.00  0.00     0.088 H 
BRANCH   7   9
ATOM      9  N3  non d ame      -9.086   5.270  68.283  0.00  0.00    -0.346 N 
ATOM     10  C7  non d ame      -9.347   4.914  66.911  0.00  0.00     0.240 C 
ATOM     11  O3  non d ame     -10.428   4.610  66.579  0.00  0.00    -0.271 OA
ATOM     12  H10 non d ame      -8.148   5.528  68.555  0.00  0.00     0.163 HD
BRANCH  10  13
ATOM     13  C6  non d ame      -8.184   4.929  65.871  0.00  0.00     0.086 C 
ATOM     14  H6  non d ame      -8.416   4.364  64.969  0.00  0.00     0.086 H 
BRANCH  13  15
ATOM     15  N2  non d ame      -7.944   6.301  65.453  0.00  0.00    -0.343 N 
ATOM     16  C5  non d ame      -7.728   6.594  64.034  0.00  0.00     0.273 C 
ATOM     17  O2  non d ame      -7.746   5.720  63.239  0.00  0.00    -0.266 OA
ATOM     18  H5  non d ame      -7.929   7.041  66.139  0.00  0.00     0.163 HD
BRANCH  16  19
ATOM     19  C4  non d ame      -7.476   8.039  63.576  0.00  0.00     0.154 A 
ATOM     20  C1  non d ame      -7.858   8.630  62.330  0.00  0.00    -0.017 A 
ATOM     21  C2  non d ame      -7.398   9.964  62.404  0.00  0.00     0.077 A 
ATOM     22  H1  non d ame      -8.388   8.163  61.499  0.00  0.00     0.091 H 
ATOM     23  O1  non d ame      -6.823  10.112  63.562  0.00  0.00    -0.218 OA
ATOM     24  N1  non d ame      -6.855   9.002  64.264  0.00  0.00    -0.123 NA
BRANCH  21  25
ATOM     25  C3  non d ame      -7.551  11.031  61.329  0.00  0.00    -0.029 C 
ATOM     26  H2  non d ame      -7.546  10.560  60.345  0.00  0.00     0.036 H 
ATOM     27  H3  non d ame      -8.493  11.560  61.474  0.00  0.00     0.036 H 
ATOM     28  H4  non d ame      -6.724  11.738  61.398  0.00  0.00     0.036 H 
ENDBRANCH  21  25
ENDBRANCH  16  19
ENDBRANCH  13  15
BRANCH  13  29
ATOM     29  C8  non d ame      -6.938   4.357  66.498  0.00  0.00    -0.049 C 
ATOM     30  H7  non d ame      -6.500   3.618  65.827  0.00  0.00     0.030 H 
ATOM     31  H8  non d ame      -6.219   5.158  66.675  0.00  0.00     0.030 H 
ATOM     32  H9  non d ame      -7.192   3.882  67.444  0.00  0.00     0.030 H 
ENDBRANCH  13  29
ENDBRANCH  10  13
ENDBRANCH   7   9
BRANCH   7  33
ATOM     33  C11 non d ame      -9.619   4.790  70.644  0.00  0.00    -0.033 C 
ATOM     34  H12 non d ame      -8.662   5.289  70.797  0.00  0.00     0.042 H 
BRANCH  33  35
ATOM     35  C12 non d ame     -10.564   5.218  71.810  0.00  0.00    -0.071 C 
ATOM     36  H13 non d ame     -10.685   4.386  72.503  0.00  0.00     0.028 H 
ATOM     37  H14 non d ame     -10.129   6.068  72.336  0.00  0.00     0.028 H 
ATOM     38  H15 non d ame     -11.535   5.500  71.405  0.00  0.00     0.028 H 
ENDBRANCH  33  35
BRANCH  33  39
ATOM     39  C13 non d ame      -9.369   3.248  70.655  0.00  0.00    -0.071 C 
ATOM     40  H16 non d ame      -9.187   2.917  71.677  0.00  0.00     0.028 H 
ATOM     41  H17 non d ame     -10.243   2.734  70.255  0.00  0.00     0.028 H 
ATOM     42  H18 non d ame      -8.499   3.018  70.039  0.00  0.00     0.028 H 
ENDBRANCH  33  39
ENDBRANCH   7  33
ENDBRANCH   4   7
ENDBRANCH   1   3
BRANCH   1  43
ATOM     43  C15 non d ame      -9.327  10.173  69.113  0.00  0.00     0.240 C 
ATOM     44  O5  non d ame      -8.169  10.004  69.326  0.00  0.00    -0.271 OA
ATOM     45  N6  non d ame      -9.768  11.345  68.305  0.00  0.00    -0.355 N 
ATOM     46  H46 non d ame     -10.748  11.498  68.114  0.00  0.00     0.162 HD
BRANCH  45  47
ATOM     47  C20 non d ame      -8.762  12.294  67.780  0.00  0.00     0.013 C 
ATOM     48  H30 non d ame      -7.790  12.006  68.178  0.00  0.00     0.072 H 
BRANCH  47  49
ATOM     49  C21 non d ame      -9.111  13.694  68.232  0.00  0.00    -0.038 C 
ATOM     50  H31 non d ame      -8.664  13.805  69.220  0.00  0.00     0.036 H 
ATOM     51  H32 non d ame      -8.803  14.351  67.417  0.00  0.00     0.036 H 
BRANCH  49  52
ATOM     52  C22 non d ame     -10.629  13.905  68.412  0.00  0.00     0.018 C 
ATOM     53  H33 non d ame     -11.109  13.117  67.830  0.00  0.00     0.048 H 
ATOM     54  H34 non d ame     -10.794  13.964  69.489  0.00  0.00     0.048 H 
BRANCH  52  55
ATOM     55  C23 non d ame     -11.149  15.247  67.824  0.00  0.00     0.259 C 
ATOM     56  O7  non d ame     -11.156  15.427  66.650  0.00  0.00    -0.265 OA
BRANCH  55  57
ATOM     57  O8  non d ame     -11.603  16.266  68.707  0.00  0.00    -0.317 OA
BRANCH  57  58
ATOM     58  C29 non d ame     -10.942  16.276  69.975  0.00  0.00     0.052 C 
ATOM     59  H47 non d ame     -10.196  15.483  69.927  0.00  0.00     0.082 H 
ATOM     60  H48 non d ame     -10.630  17.308  70.136  0.00  0.00     0.082 H 
BRANCH  58  61
ATOM     61  C35 non d ame     -11.985  15.904  71.062  0.00  0.00    -0.034 A 
ATOM     62  C30 non d ame     -13.155  15.240  70.706  0.00  0.00    -0.075 A 
ATOM     63  C31 non d ame     -14.092  14.906  71.682  0.00  0.00    -0.082 A 
ATOM     64  H49 non d ame     -13.337  14.983  69.663  0.00  0.00     0.084 H 
ATOM     65  C32 non d ame     -13.857  15.239  73.019  0.00  0.00    -0.083 A 
ATOM     66  H50 non d ame     -15.007  14.385  71.400  0.00  0.00     0.083 H 
ATOM     67  C33 non d ame     -12.690  15.904  73.369  0.00  0.00    -0.082 A 
ATOM     68  H51 non d ame     -14.585  14.981  73.788  0.00  0.00     0.083 H 
ATOM     69  C34 non d ame     -11.749  16.238  72.397  0.00  0.00    -0.075 A 
ATOM     70  H52 non d ame     -12.510  16.165  74.412  0.00  0.00     0.083 H 
ATOM     71  H53 non d ame     -10.834  16.759  72.680  0.00  0.00     0.084 H 
ENDBRANCH  58  61
ENDBRANCH  57  58
ENDBRANCH  55  57
ENDBRANCH  52  55
ENDBRANCH  49  52
ENDBRANCH  47  49
BRANCH  47  72
ATOM     72  C24 non d ame      -8.749  12.239  66.254  0.00  0.00    -0.039 C 
ATOM     73  H35 non d ame      -8.520  13.254  65.929  0.00  0.00     0.036 H 
ATOM     74  H36 non d ame      -8.075  11.421  65.998  0.00  0.00     0.036 H 
BRANCH  72  75
ATOM     75  C25 non d ame     -10.190  11.867  65.661  0.00  0.00    -0.001 C 
ATOM     76  C26 non d ame     -10.103  10.460  64.815  0.00  0.00    -0.035 C 
ATOM     77  C27 non d ame     -10.651  10.651  63.592  0.00  0.00     0.085 C 
ATOM     78  H38 non d ame      -9.062  10.222  64.593  0.00  0.00     0.036 H 
ATOM     79  H39 non d ame     -10.748   9.709  65.270  0.00  0.00     0.036 H 
ATOM     80  N5  non d ame     -10.809  12.141  63.407  0.00  0.00    -0.049 N 
ATOM     81  H40 non d ame      -9.913  10.281  62.880  0.00  0.00     0.075 H 
ATOM     82  H41 non d ame     -11.639  10.194  63.641  0.00  0.00     0.075 H 
ATOM     83  C28 non d ame     -10.624  12.793  64.872  0.00  0.00     0.193 C 
ATOM     84  H42 non d ame     -10.041  12.440  62.823  0.00  0.00     0.280 HD
ATOM     85  H43 non d ame     -11.761  12.293  63.106  0.00  0.00     0.280 HD
ATOM     86  H44 non d ame     -11.489  13.145  65.435  0.00  0.00     0.129 H 
ATOM     87  H37 non d ame     -10.977  11.947  66.411  0.00  0.00     0.046 H 
BRANCH  83  88
ATOM     88  O6  non d ame      -9.733  13.907  64.806  0.00  0.00    -0.369 OA
ATOM     89  H45 non d ame      -8.847  13.597  64.605  0.00  0.00     0.212 HD
ENDBRANCH  83  88
ENDBRANCH  72  75
ENDBRANCH  47  72
ENDBRANCH  45  47
ENDBRANCH   1  43
BRANCH   1  90
ATOM     90  C16 non d ame     -10.634   9.463  71.141  0.00  0.00    -0.035 C 
ATOM     91  H21 non d ame     -10.526   8.506  71.652  0.00  0.00     0.037 H 
ATOM     92  H22 non d ame      -9.972  10.291  71.390  0.00  0.00     0.037 H 
BRANCH  90  93
ATOM     93  C17 non d ame     -12.087   9.956  71.430  0.00  0.00    -0.059 C 
ATOM     94  H23 non d ame     -12.032  10.697  72.227  0.00  0.00     0.038 H 
BRANCH  93  95
ATOM     95  C18 non d ame     -12.737  10.640  70.186  0.00  0.00    -0.073 C 
ATOM     96  H24 non d ame     -13.778  10.326  70.101  0.00  0.00     0.028 H 
ATOM     97  H25 non d ame     -12.694  11.723  70.302  0.00  0.00     0.028 H 
ATOM     98  H26 non d ame     -12.195  10.350  69.286  0.00  0.00     0.028 H 
ENDBRANCH  93  95
BRANCH  93  99
ATOM     99  C19 non d ame     -12.962   8.807  71.940  0.00  0.00    -0.073 C 
ATOM    100  H27 non d ame     -13.362   9.063  72.920  0.00  0.00     0.028 H 
ATOM    101  H28 non d ame     -13.783   8.639  71.243  0.00  0.00     0.028 H 
ATOM    102  H29 non d ame     -12.361   7.901  72.018  0.00  0.00     0.028 H 
ENDBRANCH  93  99
ENDBRANCH  90  93
ENDBRANCH   1  90
TORSDOF 26
ENDMDL
MODEL 15
REMARK VINA RESULT:      -6.3      2.587      7.911
REMARK  26 active torsions:
REMARK  status: ('A' for Active; 'I' for Inactive)
REMARK    1  A    between atoms: C2_2  and  C3_3 
REMARK    2  A    between atoms: C4_6  and  C5_7 
REMARK       I    between atoms: C5_7  and  N2_9 
REMARK    3  A    between atoms: N2_9  and  C6_10 
REMARK    4  A    between atoms: C6_10  and  C7_11 
REMARK    5  A    between atoms: C6_10  and  C8_13 
REMARK       I    between atoms: C7_11  and  N3_14 
REMARK    6  A    between atoms: N3_14  and  C9_15 
REMARK    7  A    between atoms: C9_15  and  C10_16 
REMARK    8  A    between atoms: C9_15  and  C11_18 
REMARK       I    between atoms: C10_16  and  N4_21 
REMARK    9  A    between atoms: C11_18  and  C12_19 
REMARK   10  A    between atoms: C11_18  and  C13_20 
REMARK   11  A    between atoms: N4_21  and  C14_22 
REMARK   12  A    between atoms: C14_22  and  C15_23 
REMARK   13  A    between atoms: C14_22  and  C16_25 
REMARK       I    between atoms: C15_23  and  N6_40 
REMARK   14  A    between atoms: C16_25  and  C17_26 
REMARK   15  A    between atoms: C17_26  and  C18_27 
REMARK   16  A    between atoms: C17_26  and  C19_28 
REMARK   17  A    between atoms: C20_29  and  C21_30 
REMARK   18  A    between atoms: C20_29  and  C24_33 
REMARK   19  A    between atoms: C20_29  and  N6_40 
REMARK   20  A    between atoms: C21_30  and  C22_31 
REMARK   21  A    between atoms: C22_31  and  C23_32 
REMARK   22  A    between atoms: C23_32  and  O8_43 
REMARK   23  A    between atoms: C24_33  and  C25_34 
REMARK   24  A    between atoms: C28_38  and  O6_39 
REMARK   25  A    between atoms: C29_42  and  O8_43 
REMARK   26  A    between atoms: C29_42  and  C35_49 
ROOT
ATOM      1  C14 non d ame      -6.597  12.032  67.920  0.00  0.00     0.089 C 
ATOM      2  H20 non d ame      -5.678  12.553  67.650  0.00  0.00     0.087 H 
ENDROOT
BRANCH   1   3
ATOM      3  N4  non d ame      -7.690  12.986  67.813  0.00  0.00    -0.346 N 
ATOM      4  C10 non d ame      -7.410  14.434  67.494  0.00  0.00     0.241 C 
ATOM      5  O4  non d ame      -6.295  14.807  67.330  0.00  0.00    -0.271 OA
ATOM      6  H19 non d ame      -8.632  12.649  67.958  0.00  0.00     0.163 HD
BRANCH   4   7
ATOM      7  C9  non d ame      -8.554  15.406  67.381  0.00  0.00     0.092 C 
ATOM      8  H11 non d ame      -8.976  15.349  66.377  0.00  0.00     0.088 H 
BRANCH   7   9
ATOM      9  N3  non d ame      -9.616  15.024  68.317  0.00  0.00    -0.346 N 
ATOM     10  C7  non d ame     -10.849  14.466  67.821  0.00  0.00     0.240 C 
ATOM     11  O3  non d ame     -11.006  14.318  66.670  0.00  0.00    -0.271 OA
ATOM     12  H10 non d ame      -9.496  15.147  69.312  0.00  0.00     0.163 HD
BRANCH  10  13
ATOM     13  C6  non d ame     -11.976  14.064  68.823  0.00  0.00     0.086 C 
ATOM     14  H6  non d ame     -12.894  13.755  68.324  0.00  0.00     0.086 H 
BRANCH  13  15
ATOM     15  N2  non d ame     -11.525  12.927  69.607  0.00  0.00    -0.343 N 
ATOM     16  C5  non d ame     -11.576  11.584  69.024  0.00  0.00     0.273 C 
ATOM     17  O2  non d ame     -11.984  11.429  67.926  0.00  0.00    -0.266 OA
ATOM     18  H5  non d ame     -11.180  13.067  70.546  0.00  0.00     0.163 HD
BRANCH  16  19
ATOM     19  C4  non d ame     -11.101  10.372  69.841  0.00  0.00     0.154 A 
ATOM     20  C1  non d ame     -11.643   9.896  71.077  0.00  0.00    -0.017 A 
ATOM     21  C2  non d ame     -10.859   8.768  71.408  0.00  0.00     0.077 A 
ATOM     22  H1  non d ame     -12.478  10.306  71.647  0.00  0.00     0.091 H 
ATOM     23  O1  non d ame      -9.975   8.621  70.465  0.00  0.00    -0.218 OA
ATOM     24  N1  non d ame     -10.095   9.545  69.540  0.00  0.00    -0.123 NA
BRANCH  21  25
ATOM     25  C3  non d ame     -11.022   7.887  72.639  0.00  0.00    -0.029 C 
ATOM     26  H2  non d ame     -12.013   7.430  72.631  0.00  0.00     0.036 H 
ATOM     27  H3  non d ame     -10.262   7.106  72.629  0.00  0.00     0.036 H 
ATOM     28  H4  non d ame     -10.909   8.492  73.538  0.00  0.00     0.036 H 
ENDBRANCH  21  25
ENDBRANCH  16  19
ENDBRANCH  13  15
BRANCH  13  29
ATOM     29  C8  non d ame     -12.283  15.227  69.731  0.00  0.00    -0.049 C 
ATOM     30  H7  non d ame     -12.261  16.154  69.157  0.00  0.00     0.030 H 
ATOM     31  H8  non d ame     -13.274  15.095  70.168  0.00  0.00     0.030 H 
ATOM     32  H9  non d ame     -11.539  15.275  70.525  0.00  0.00     0.030 H 
ENDBRANCH  13  29
ENDBRANCH  10  13
ENDBRANCH   7   9
BRANCH   7  33
ATOM     33  C11 non d ame      -8.053  16.839  67.725  0.00  0.00    -0.033 C 
ATOM     34  H12 non d ame      -7.110  16.737  68.262  0.00  0.00     0.042 H 
BRANCH  33  35
ATOM     35  C12 non d ame      -7.770  17.668  66.433  0.00  0.00    -0.071 C 
ATOM     36  H13 non d ame      -8.467  18.504  66.378  0.00  0.00     0.028 H 
ATOM     37  H14 non d ame      -6.749  18.047  66.461  0.00  0.00     0.028 H 
ATOM     38  H15 non d ame      -7.896  17.030  65.559  0.00  0.00     0.028 H 
ENDBRANCH  33  35
BRANCH  33  39
ATOM     39  C13 non d ame      -9.065  17.576  68.660  0.00  0.00    -0.071 C 
ATOM     40  H16 non d ame     -10.083  17.356  68.339  0.00  0.00     0.028 H 
ATOM     41  H17 non d ame      -8.926  17.236  69.686  0.00  0.00     0.028 H 
ATOM     42  H18 non d ame      -8.892  18.650  68.606  0.00  0.00     0.028 H 
ENDBRANCH  33  39
ENDBRANCH   7  33
ENDBRANCH   4   7
ENDBRANCH   1   3
BRANCH   1  43
ATOM     43  C15 non d ame      -6.892  10.832  66.975  0.00  0.00     0.240 C 
ATOM     44  O5  non d ame      -6.113  10.546  66.123  0.00  0.00    -0.271 OA
ATOM     45  N6  non d ame      -8.140  10.034  67.137  0.00  0.00    -0.355 N 
ATOM     46  H46 non d ame      -8.807  10.266  67.860  0.00  0.00     0.162 HD
BRANCH  45  47
ATOM     47  C20 non d ame      -8.405   8.896  66.232  0.00  0.00     0.013 C 
ATOM     48  H30 non d ame      -7.644   8.904  65.451  0.00  0.00     0.072 H 
BRANCH  47  49
ATOM     49  C21 non d ame      -9.777   9.055  65.616  0.00  0.00    -0.038 C 
ATOM     50  H31 non d ame      -9.783   8.410  64.737  0.00  0.00     0.036 H 
ATOM     51  H32 non d ame     -10.485   8.879  66.427  0.00  0.00     0.036 H 
BRANCH  49  52
ATOM     52  C22 non d ame     -10.044  10.488  65.108  0.00  0.00     0.018 C 
ATOM     53  H33 non d ame     -11.104  10.673  65.287  0.00  0.00     0.048 H 
ATOM     54  H34 non d ame      -9.292  11.116  65.587  0.00  0.00     0.048 H 
BRANCH  52  55
ATOM     55  C23 non d ame      -9.834  10.659  63.578  0.00  0.00     0.259 C 
ATOM     56  O7  non d ame     -10.169  11.659  63.031  0.00  0.00    -0.265 OA
BRANCH  55  57
ATOM     57  O8  non d ame      -9.247   9.599  62.832  0.00  0.00    -0.317 OA
BRANCH  57  58
ATOM     58  C29 non d ame      -7.834   9.727  62.648  0.00  0.00     0.052 C 
ATOM     59  H47 non d ame      -7.697  10.019  61.607  0.00  0.00     0.082 H 
ATOM     60  H48 non d ame      -7.492  10.385  63.447  0.00  0.00     0.082 H 
BRANCH  58  61
ATOM     61  C35 non d ame      -7.196   8.328  62.855  0.00  0.00    -0.034 A 
ATOM     62  C30 non d ame      -5.820   8.209  63.021  0.00  0.00    -0.075 A 
ATOM     63  C31 non d ame      -5.246   6.952  63.207  0.00  0.00    -0.082 A 
ATOM     64  H49 non d ame      -5.192   9.099  63.006  0.00  0.00     0.084 H 
ATOM     65  C32 non d ame      -6.053   5.812  63.225  0.00  0.00    -0.083 A 
ATOM     66  H50 non d ame      -4.168   6.862  63.339  0.00  0.00     0.083 H 
ATOM     67  C33 non d ame      -7.426   5.935  63.055  0.00  0.00    -0.082 A 
ATOM     68  H51 non d ame      -5.613   4.825  63.370  0.00  0.00     0.083 H 
ATOM     69  C34 non d ame      -8.004   7.190  62.871  0.00  0.00    -0.075 A 
ATOM     70  H52 non d ame      -8.053   5.043  63.066  0.00  0.00     0.083 H 
ATOM     71  H53 non d ame      -9.083   7.279  62.740  0.00  0.00     0.084 H 
ENDBRANCH  58  61
ENDBRANCH  57  58
ENDBRANCH  55  57
ENDBRANCH  52  55
ENDBRANCH  49  52
ENDBRANCH  47  49
BRANCH  47  72
ATOM     72  C24 non d ame      -8.347   7.588  67.016  0.00  0.00    -0.039 C 
ATOM     73  H35 non d ame      -8.735   7.825  68.007  0.00  0.00     0.036 H 
ATOM     74  H36 non d ame      -8.857   6.852  66.394  0.00  0.00     0.036 H 
BRANCH  72  75
ATOM     75  C25 non d ame      -6.840   7.079  67.209  0.00  0.00    -0.001 C 
ATOM     76  C26 non d ame      -6.728   5.489  66.808  0.00  0.00    -0.035 C 
ATOM     77  C27 non d ame      -6.124   4.824  67.821  0.00  0.00     0.085 C 
ATOM     78  H38 non d ame      -7.722   5.043  66.768  0.00  0.00     0.036 H 
ATOM     79  H39 non d ame      -6.040   5.361  65.972  0.00  0.00     0.036 H 
ATOM     80  N5  non d ame      -6.107   5.752  69.011  0.00  0.00    -0.049 N 
ATOM     81  H40 non d ame      -6.773   3.975  68.042  0.00  0.00     0.075 H 
ATOM     82  H41 non d ame      -5.100   4.655  67.488  0.00  0.00     0.075 H 
ATOM     83  C28 non d ame      -6.452   7.221  68.434  0.00  0.00     0.193 C 
ATOM     84  H42 non d ame      -6.862   5.459  69.614  0.00  0.00     0.280 HD
ATOM     85  H43 non d ame      -5.158   5.758  69.356  0.00  0.00     0.280 HD
ATOM     86  H44 non d ame      -5.666   7.965  68.309  0.00  0.00     0.129 H 
ATOM     87  H37 non d ame      -6.115   7.757  66.758  0.00  0.00     0.046 H 
BRANCH  83  88
ATOM     88  O6  non d ame      -7.446   7.847  69.245  0.00  0.00    -0.369 OA
ATOM     89  H45 non d ame      -8.104   8.262  68.683  0.00  0.00     0.212 HD
ENDBRANCH  83  88
ENDBRANCH  72  75
ENDBRANCH  47  72
ENDBRANCH  45  47
ENDBRANCH   1  43
BRANCH   1  90
ATOM     90  C16 non d ame      -6.506  11.541  69.357  0.00  0.00    -0.035 C 
ATOM     91  H21 non d ame      -7.073  12.263  69.945  0.00  0.00     0.037 H 
ATOM     92  H22 non d ame      -6.819  10.498  69.325  0.00  0.00     0.037 H 
BRANCH  90  93
ATOM     93  C17 non d ame      -5.053  11.549  69.930  0.00  0.00    -0.059 C 
ATOM     94  H23 non d ame      -5.127  11.538  71.018  0.00  0.00     0.038 H 
BRANCH  93  95
ATOM     95  C18 non d ame      -4.240  10.289  69.495  0.00  0.00    -0.073 C 
ATOM     96  H24 non d ame      -3.896   9.755  70.381  0.00  0.00     0.028 H 
ATOM     97  H25 non d ame      -4.875   9.634  68.900  0.00  0.00     0.028 H 
ATOM     98  H26 non d ame      -3.380  10.599  68.900  0.00  0.00     0.028 H 
ENDBRANCH  93  95
BRANCH  93  99
ATOM     99  C19 non d ame      -4.319  12.835  69.539  0.00  0.00    -0.073 C 
ATOM    100  H27 non d ame      -3.602  13.094  70.318  0.00  0.00     0.028 H 
ATOM    101  H28 non d ame      -3.792  12.680  68.597  0.00  0.00     0.028 H 
ATOM    102  H29 non d ame      -5.039  13.644  69.424  0.00  0.00     0.028 H 
ENDBRANCH  93  99
ENDBRANCH  90  93
ENDBRANCH   1  90
TORSDOF 26
ENDMDL
MODEL 16
REMARK VINA RESULT:      -6.3      3.515      9.710
REMARK  26 active torsions:
REMARK  status: ('A' for Active; 'I' for Inactive)
REMARK    1  A    between atoms: C2_2  and  C3_3 
REMARK    2  A    between atoms: C4_6  and  C5_7 
REMARK       I    between atoms: C5_7  and  N2_9 
REMARK    3  A    between atoms: N2_9  and  C6_10 
REMARK    4  A    between atoms: C6_10  and  C7_11 
REMARK    5  A    between atoms: C6_10  and  C8_13 
REMARK       I    between atoms: C7_11  and  N3_14 
REMARK    6  A    between atoms: N3_14  and  C9_15 
REMARK    7  A    between atoms: C9_15  and  C10_16 
REMARK    8  A    between atoms: C9_15  and  C11_18 
REMARK       I    between atoms: C10_16  and  N4_21 
REMARK    9  A    between atoms: C11_18  and  C12_19 
REMARK   10  A    between atoms: C11_18  and  C13_20 
REMARK   11  A    between atoms: N4_21  and  C14_22 
REMARK   12  A    between atoms: C14_22  and  C15_23 
REMARK   13  A    between atoms: C14_22  and  C16_25 
REMARK       I    between atoms: C15_23  and  N6_40 
REMARK   14  A    between atoms: C16_25  and  C17_26 
REMARK   15  A    between atoms: C17_26  and  C18_27 
REMARK   16  A    between atoms: C17_26  and  C19_28 
REMARK   17  A    between atoms: C20_29  and  C21_30 
REMARK   18  A    between atoms: C20_29  and  C24_33 
REMARK   19  A    between atoms: C20_29  and  N6_40 
REMARK   20  A    between atoms: C21_30  and  C22_31 
REMARK   21  A    between atoms: C22_31  and  C23_32 
REMARK   22  A    between atoms: C23_32  and  O8_43 
REMARK   23  A    between atoms: C24_33  and  C25_34 
REMARK   24  A    between atoms: C28_38  and  O6_39 
REMARK   25  A    between atoms: C29_42  and  O8_43 
REMARK   26  A    between atoms: C29_42  and  C35_49 
ROOT
ATOM      1  C14 non d ame      -9.165   6.842  66.867  0.00  0.00     0.089 C 
ATOM      2  H20 non d ame      -9.676   6.523  65.958  0.00  0.00     0.087 H 
ENDROOT
BRANCH   1   3
ATOM      3  N4  non d ame      -8.800   8.240  66.697  0.00  0.00    -0.346 N 
ATOM      4  C10 non d ame      -8.483   8.783  65.326  0.00  0.00     0.241 C 
ATOM      5  O4  non d ame      -8.527   8.074  64.375  0.00  0.00    -0.271 OA
ATOM      6  H19 non d ame      -8.766   8.826  67.520  0.00  0.00     0.163 HD
BRANCH   4   7
ATOM      7  C9  non d ame      -8.112  10.234  65.168  0.00  0.00     0.092 C 
ATOM      8  H11 non d ame      -7.747  10.402  64.154  0.00  0.00     0.088 H 
BRANCH   7   9
ATOM      9  N3  non d ame      -9.306  11.066  65.341  0.00  0.00    -0.346 N 
ATOM     10  C7  non d ame     -10.192  11.299  64.228  0.00  0.00     0.240 C 
ATOM     11  O3  non d ame      -9.958  10.825  63.183  0.00  0.00    -0.271 OA
ATOM     12  H10 non d ame      -9.520  11.483  66.236  0.00  0.00     0.163 HD
BRANCH  10  13
ATOM     13  C6  non d ame     -11.459  12.188  64.418  0.00  0.00     0.086 C 
ATOM     14  H6  non d ame     -12.026  11.929  65.313  0.00  0.00     0.086 H 
BRANCH  13  15
ATOM     15  N2  non d ame     -11.044  13.572  64.576  0.00  0.00    -0.343 N 
ATOM     16  C5  non d ame     -11.241  14.242  65.864  0.00  0.00     0.273 C 
ATOM     17  O2  non d ame     -11.736  13.659  66.765  0.00  0.00    -0.266 OA
ATOM     18  H5  non d ame     -10.623  14.063  63.801  0.00  0.00     0.163 HD
BRANCH  16  19
ATOM     19  C4  non d ame     -10.805  15.704  66.046  0.00  0.00     0.154 A 
ATOM     20  C1  non d ame     -10.590  16.395  67.281  0.00  0.00    -0.017 A 
ATOM     21  C2  non d ame     -10.204  17.701  66.905  0.00  0.00     0.077 A 
ATOM     22  H1  non d ame     -10.697  16.008  68.295  0.00  0.00     0.091 H 
ATOM     23  O1  non d ame     -10.199  17.744  65.604  0.00  0.00    -0.218 OA
ATOM     24  N1  non d ame     -10.547  16.591  65.080  0.00  0.00    -0.123 NA
BRANCH  21  25
ATOM     25  C3  non d ame      -9.856  18.844  67.847  0.00  0.00    -0.029 C 
ATOM     26  H2  non d ame     -10.667  19.574  67.850  0.00  0.00     0.036 H 
ATOM     27  H3  non d ame      -9.716  18.454  68.855  0.00  0.00     0.036 H 
ATOM     28  H4  non d ame      -8.937  19.325  67.513  0.00  0.00     0.036 H 
ENDBRANCH  21  25
ENDBRANCH  16  19
ENDBRANCH  13  15
BRANCH  13  29
ATOM     29  C8  non d ame     -12.358  12.053  63.216  0.00  0.00    -0.049 C 
ATOM     30  H7  non d ame     -12.495  13.031  62.752  0.00  0.00     0.030 H 
ATOM     31  H8  non d ame     -11.902  11.371  62.497  0.00  0.00     0.030 H 
ATOM     32  H9  non d ame     -13.325  11.660  63.527  0.00  0.00     0.030 H 
ENDBRANCH  13  29
ENDBRANCH  10  13
ENDBRANCH   7   9
BRANCH   7  33
ATOM     33  C11 non d ame      -7.053  10.619  66.242  0.00  0.00    -0.033 C 
ATOM     34  H12 non d ame      -7.011   9.807  66.968  0.00  0.00     0.042 H 
BRANCH  33  35
ATOM     35  C12 non d ame      -5.631  10.761  65.614  0.00  0.00    -0.071 C 
ATOM     36  H13 non d ame      -5.158   9.780  65.562  0.00  0.00     0.028 H 
ATOM     37  H14 non d ame      -5.717  11.176  64.610  0.00  0.00     0.028 H 
ATOM     38  H15 non d ame      -5.027  11.425  66.231  0.00  0.00     0.028 H 
ENDBRANCH  33  35
BRANCH  33  39
ATOM     39  C13 non d ame      -7.471  11.922  66.997  0.00  0.00    -0.071 C 
ATOM     40  H16 non d ame      -7.215  12.790  66.391  0.00  0.00     0.028 H 
ATOM     41  H17 non d ame      -8.546  11.908  67.178  0.00  0.00     0.028 H 
ATOM     42  H18 non d ame      -6.942  11.974  67.948  0.00  0.00     0.028 H 
ENDBRANCH  33  39
ENDBRANCH   7  33
ENDBRANCH   4   7
ENDBRANCH   1   3
BRANCH   1  43
ATOM     43  C15 non d ame     -10.071   6.716  68.125  0.00  0.00     0.240 C 
ATOM     44  O5  non d ame     -11.244   6.563  67.996  0.00  0.00    -0.271 OA
ATOM     45  N6  non d ame      -9.478   6.777  69.491  0.00  0.00    -0.355 N 
ATOM     46  H46 non d ame      -8.483   6.903  69.612  0.00  0.00     0.162 HD
BRANCH  45  47
ATOM     47  C20 non d ame     -10.353   6.655  70.676  0.00  0.00     0.013 C 
ATOM     48  H30 non d ame     -11.387   6.702  70.336  0.00  0.00     0.072 H 
BRANCH  47  49
ATOM     49  C21 non d ame     -10.070   7.797  71.627  0.00  0.00    -0.038 C 
ATOM     50  H31 non d ame     -10.169   7.378  72.628  0.00  0.00     0.036 H 
ATOM     51  H32 non d ame      -9.118   8.219  71.303  0.00  0.00     0.036 H 
BRANCH  49  52
ATOM     52  C22 non d ame     -11.109   8.934  71.523  0.00  0.00     0.018 C 
ATOM     53  H33 non d ame     -12.059   8.448  71.299  0.00  0.00     0.048 H 
ATOM     54  H34 non d ame     -10.998   9.519  72.437  0.00  0.00     0.048 H 
BRANCH  52  55
ATOM     55  C23 non d ame     -10.845   9.918  70.349  0.00  0.00     0.259 C 
ATOM     56  O7  non d ame      -9.830   9.862  69.733  0.00  0.00    -0.265 OA
BRANCH  55  57
ATOM     57  O8  non d ame     -11.824  10.898  70.027  0.00  0.00    -0.317 OA
BRANCH  57  58
ATOM     58  C29 non d ame     -12.730  11.191  71.095  0.00  0.00     0.052 C 
ATOM     59  H47 non d ame     -13.691  10.782  70.787  0.00  0.00     0.082 H 
ATOM     60  H48 non d ame     -12.247  10.823  72.000  0.00  0.00     0.082 H 
BRANCH  58  61
ATOM     61  C35 non d ame     -12.862  12.733  71.201  0.00  0.00    -0.034 A 
ATOM     62  C30 non d ame     -12.192  13.553  70.299  0.00  0.00    -0.075 A 
ATOM     63  C31 non d ame     -12.311  14.939  70.394  0.00  0.00    -0.082 A 
ATOM     64  H49 non d ame     -11.575  13.111  69.518  0.00  0.00     0.084 H 
ATOM     65  C32 non d ame     -13.102  15.504  71.398  0.00  0.00    -0.083 A 
ATOM     66  H50 non d ame     -11.786  15.579  69.685  0.00  0.00     0.083 H 
ATOM     67  C33 non d ame     -13.767  14.682  72.298  0.00  0.00    -0.082 A 
ATOM     68  H51 non d ame     -13.201  16.586  71.480  0.00  0.00     0.083 H 
ATOM     69  C34 non d ame     -13.652  13.296  72.205  0.00  0.00    -0.075 A 
ATOM     70  H52 non d ame     -14.381  15.126  73.081  0.00  0.00     0.083 H 
ATOM     71  H53 non d ame     -14.178  12.656  72.915  0.00  0.00     0.084 H 
ENDBRANCH  58  61
ENDBRANCH  57  58
ENDBRANCH  55  57
ENDBRANCH  52  55
ENDBRANCH  49  52
ENDBRANCH  47  49
BRANCH  47  72
ATOM     72  C24 non d ame     -10.085   5.327  71.381  0.00  0.00    -0.039 C 
ATOM     73  H35 non d ame      -9.811   5.590  72.402  0.00  0.00     0.036 H 
ATOM     74  H36 non d ame     -10.968   4.716  71.194  0.00  0.00     0.036 H 
BRANCH  72  75
ATOM     75  C25 non d ame      -8.834   4.558  70.740  0.00  0.00    -0.001 C 
ATOM     76  C26 non d ame      -9.347   3.203  69.963  0.00  0.00    -0.035 C 
ATOM     77  C27 non d ame      -8.618   2.148  70.398  0.00  0.00     0.085 C 
ATOM     78  H38 non d ame     -10.362   2.956  70.274  0.00  0.00     0.036 H 
ATOM     79  H39 non d ame      -9.101   3.263  68.902  0.00  0.00     0.036 H 
ATOM     80  N5  non d ame      -7.879   2.601  71.634  0.00  0.00    -0.049 N 
ATOM     81  H40 non d ame      -9.345   1.386  70.678  0.00  0.00     0.075 H 
ATOM     82  H41 non d ame      -7.895   1.947  69.607  0.00  0.00     0.075 H 
ATOM     83  C28 non d ame      -7.983   4.212  71.648  0.00  0.00     0.193 C 
ATOM     84  H42 non d ame      -8.394   2.239  72.424  0.00  0.00     0.280 HD
ATOM     85  H43 non d ame      -6.912   2.343  71.501  0.00  0.00     0.280 HD
ATOM     86  H44 non d ame      -7.127   4.825  71.362  0.00  0.00     0.129 H 
ATOM     87  H37 non d ame      -8.177   5.229  70.186  0.00  0.00     0.046 H 
BRANCH  83  88
ATOM     88  O6  non d ame      -8.363   4.670  72.946  0.00  0.00    -0.369 OA
ATOM     89  H45 non d ame      -7.608   5.075  73.377  0.00  0.00     0.212 HD
ENDBRANCH  83  88
ENDBRANCH  72  75
ENDBRANCH  47  72
ENDBRANCH  45  47
ENDBRANCH   1  43
BRANCH   1  90
ATOM     90  C16 non d ame      -7.902   6.018  67.063  0.00  0.00    -0.035 C 
ATOM     91  H21 non d ame      -7.081   6.733  67.012  0.00  0.00     0.037 H 
ATOM     92  H22 non d ame      -8.069   5.445  67.974  0.00  0.00     0.037 H 
BRANCH  90  93
ATOM     93  C17 non d ame      -7.650   4.977  65.926  0.00  0.00    -0.059 C 
ATOM     94  H23 non d ame      -7.416   4.023  66.398  0.00  0.00     0.038 H 
BRANCH  93  95
ATOM     95  C18 non d ame      -8.909   4.769  65.026  0.00  0.00    -0.073 C 
ATOM     96  H24 non d ame      -9.484   3.920  65.396  0.00  0.00     0.028 H 
ATOM     97  H25 non d ame      -9.528   5.666  65.055  0.00  0.00     0.028 H 
ATOM     98  H26 non d ame      -8.596   4.578  64.000  0.00  0.00     0.028 H 
ENDBRANCH  93  95
BRANCH  93  99
ATOM     99  C19 non d ame      -6.436   5.374  65.082  0.00  0.00    -0.073 C 
ATOM    100  H27 non d ame      -6.466   6.445  64.883  0.00  0.00     0.028 H 
ATOM    101  H28 non d ame      -5.521   5.130  65.623  0.00  0.00     0.028 H 
ATOM    102  H29 non d ame      -6.456   4.830  64.138  0.00  0.00     0.028 H 
ENDBRANCH  93  99
ENDBRANCH  90  93
ENDBRANCH   1  90
TORSDOF 26
ENDMDL
MODEL 17
REMARK VINA RESULT:      -6.3      1.701      4.553
REMARK  26 active torsions:
REMARK  status: ('A' for Active; 'I' for Inactive)
REMARK    1  A    between atoms: C2_2  and  C3_3 
REMARK    2  A    between atoms: C4_6  and  C5_7 
REMARK       I    between atoms: C5_7  and  N2_9 
REMARK    3  A    between atoms: N2_9  and  C6_10 
REMARK    4  A    between atoms: C6_10  and  C7_11 
REMARK    5  A    between atoms: C6_10  and  C8_13 
REMARK       I    between atoms: C7_11  and  N3_14 
REMARK    6  A    between atoms: N3_14  and  C9_15 
REMARK    7  A    between atoms: C9_15  and  C10_16 
REMARK    8  A    between atoms: C9_15  and  C11_18 
REMARK       I    between atoms: C10_16  and  N4_21 
REMARK    9  A    between atoms: C11_18  and  C12_19 
REMARK   10  A    between atoms: C11_18  and  C13_20 
REMARK   11  A    between atoms: N4_21  and  C14_22 
REMARK   12  A    between atoms: C14_22  and  C15_23 
REMARK   13  A    between atoms: C14_22  and  C16_25 
REMARK       I    between atoms: C15_23  and  N6_40 
REMARK   14  A    between atoms: C16_25  and  C17_26 
REMARK   15  A    between atoms: C17_26  and  C18_27 
REMARK   16  A    between atoms: C17_26  and  C19_28 
REMARK   17  A    between atoms: C20_29  and  C21_30 
REMARK   18  A    between atoms: C20_29  and  C24_33 
REMARK   19  A    between atoms: C20_29  and  N6_40 
REMARK   20  A    between atoms: C21_30  and  C22_31 
REMARK   21  A    between atoms: C22_31  and  C23_32 
REMARK   22  A    between atoms: C23_32  and  O8_43 
REMARK   23  A    between atoms: C24_33  and  C25_34 
REMARK   24  A    between atoms: C28_38  and  O6_39 
REMARK   25  A    between atoms: C29_42  and  O8_43 
REMARK   26  A    between atoms: C29_42  and  C35_49 
ROOT
ATOM      1  C14 non d ame     -10.330   9.843  69.580  0.00  0.00     0.089 C 
ATOM      2  H20 non d ame     -10.323   8.858  69.114  0.00  0.00     0.087 H 
ENDROOT
BRANCH   1   3
ATOM      3  N4  non d ame      -8.945  10.250  69.768  0.00  0.00    -0.346 N 
ATOM      4  C10 non d ame      -7.981  10.229  68.608  0.00  0.00     0.241 C 
ATOM      5  O4  non d ame      -8.343   9.878  67.533  0.00  0.00    -0.271 OA
ATOM      6  H19 non d ame      -8.657  10.542  70.691  0.00  0.00     0.163 HD
BRANCH   4   7
ATOM      7  C9  non d ame      -6.553  10.658  68.819  0.00  0.00     0.092 C 
ATOM      8  H11 non d ame      -6.080  10.818  67.851  0.00  0.00     0.088 H 
BRANCH   7   9
ATOM      9  N3  non d ame      -6.528  11.940  69.529  0.00  0.00    -0.346 N 
ATOM     10  C7  non d ame      -6.064  13.128  68.857  0.00  0.00     0.240 C 
ATOM     11  O3  non d ame      -5.705  13.070  67.744  0.00  0.00    -0.271 OA
ATOM     12  H10 non d ame      -6.832  12.005  70.490  0.00  0.00     0.163 HD
BRANCH  10  13
ATOM     13  C6  non d ame      -6.036  14.489  69.619  0.00  0.00     0.086 C 
ATOM     14  H6  non d ame      -5.186  15.112  69.340  0.00  0.00     0.086 H 
BRANCH  13  15
ATOM     15  N2  non d ame      -7.233  15.242  69.283  0.00  0.00    -0.343 N 
ATOM     16  C5  non d ame      -7.169  16.266  68.237  0.00  0.00     0.273 C 
ATOM     17  O2  non d ame      -6.152  16.478  67.675  0.00  0.00    -0.266 OA
ATOM     18  H5  non d ame      -8.098  15.057  69.769  0.00  0.00     0.163 HD
BRANCH  16  19
ATOM     19  C4  non d ame      -8.427  17.069  67.869  0.00  0.00     0.154 A 
ATOM     20  C1  non d ame      -8.513  18.177  66.967  0.00  0.00    -0.017 A 
ATOM     21  C2  non d ame      -9.875  18.552  66.979  0.00  0.00     0.077 A 
ATOM     22  H1  non d ame      -7.709  18.638  66.392  0.00  0.00     0.091 H 
ATOM     23  O1  non d ame     -10.491  17.746  67.794  0.00  0.00    -0.218 OA
ATOM     24  N1  non d ame      -9.667  16.872  68.326  0.00  0.00    -0.123 NA
BRANCH  21  25
ATOM     25  C3  non d ame     -10.504  19.687  66.184  0.00  0.00    -0.029 C 
ATOM     26  H2  non d ame      -9.975  20.617  66.395  0.00  0.00     0.036 H 
ATOM     27  H3  non d ame     -10.437  19.465  65.119  0.00  0.00     0.036 H 
ATOM     28  H4  non d ame     -11.552  19.793  66.467  0.00  0.00     0.036 H 
ENDBRANCH  21  25
ENDBRANCH  16  19
ENDBRANCH  13  15
BRANCH  13  29
ATOM     29  C8  non d ame      -5.987  14.236  71.104  0.00  0.00    -0.049 C 
ATOM     30  H7  non d ame      -6.998  14.262  71.512  0.00  0.00     0.030 H 
ATOM     31  H8  non d ame      -5.545  13.256  71.291  0.00  0.00     0.030 H 
ATOM     32  H9  non d ame      -5.383  15.004  71.584  0.00  0.00     0.030 H 
ENDBRANCH  13  29
ENDBRANCH  10  13
ENDBRANCH   7   9
BRANCH   7  33
ATOM     33  C11 non d ame      -5.808   9.584  69.665  0.00  0.00    -0.033 C 
ATOM     34  H12 non d ame      -6.519   8.787  69.883  0.00  0.00     0.042 H 
BRANCH  33  35
ATOM     35  C12 non d ame      -4.625   8.953  68.868  0.00  0.00    -0.071 C 
ATOM     36  H13 non d ame      -3.685   9.389  69.206  0.00  0.00     0.028 H 
ATOM     37  H14 non d ame      -4.606   7.876  69.036  0.00  0.00     0.028 H 
ATOM     38  H15 non d ame      -4.757   9.152  67.804  0.00  0.00     0.028 H 
ENDBRANCH  33  35
BRANCH  33  39
ATOM     39  C13 non d ame      -5.320  10.182  71.024  0.00  0.00    -0.071 C 
ATOM     40  H16 non d ame      -4.336   9.783  71.264  0.00  0.00     0.028 H 
ATOM     41  H17 non d ame      -5.263  11.268  70.943  0.00  0.00     0.028 H 
ATOM     42  H18 non d ame      -6.024   9.913  71.811  0.00  0.00     0.028 H 
ENDBRANCH  33  39
ENDBRANCH   7  33
ENDBRANCH   4   7
ENDBRANCH   1   3
BRANCH   1  43
ATOM     43  C15 non d ame     -11.042  10.907  68.696  0.00  0.00     0.240 C 
ATOM     44  O5  non d ame     -11.610  10.569  67.707  0.00  0.00    -0.271 OA
ATOM     45  N6  non d ame     -11.025  12.345  69.086  0.00  0.00    -0.355 N 
ATOM     46  H46 non d ame     -10.550  12.643  69.926  0.00  0.00     0.162 HD
BRANCH  45  47
ATOM     47  C20 non d ame     -11.708  13.344  68.236  0.00  0.00     0.013 C 
ATOM     48  H30 non d ame     -12.554  12.852  67.755  0.00  0.00     0.072 H 
BRANCH  47  49
ATOM     49  C21 non d ame     -10.744  13.852  67.188  0.00  0.00    -0.038 C 
ATOM     50  H31 non d ame     -10.441  14.844  67.522  0.00  0.00     0.036 H 
ATOM     51  H32 non d ame      -9.999  13.065  67.068  0.00  0.00     0.036 H 
BRANCH  49  52
ATOM     52  C22 non d ame     -11.405  14.039  65.805  0.00  0.00     0.018 C 
ATOM     53  H33 non d ame     -12.283  14.664  65.979  0.00  0.00     0.048 H 
ATOM     54  H34 non d ame     -10.612  14.387  65.143  0.00  0.00     0.048 H 
BRANCH  52  55
ATOM     55  C23 non d ame     -11.938  12.719  65.182  0.00  0.00     0.259 C 
ATOM     56  O7  non d ame     -13.106  12.528  65.082  0.00  0.00    -0.265 OA
BRANCH  55  57
ATOM     57  O8  non d ame     -11.012  11.732  64.744  0.00  0.00    -0.317 OA
BRANCH  57  58
ATOM     58  C29 non d ame     -10.137  12.174  63.703  0.00  0.00     0.052 C 
ATOM     59  H47 non d ame     -10.783  12.455  62.873  0.00  0.00     0.082 H 
ATOM     60  H48 non d ame      -9.485  12.918  64.162  0.00  0.00     0.082 H 
BRANCH  58  61
ATOM     61  C35 non d ame      -9.268  10.965  63.262  0.00  0.00    -0.034 A 
ATOM     62  C30 non d ame      -9.208   9.825  64.056  0.00  0.00    -0.075 A 
ATOM     63  C31 non d ame      -8.428   8.740  63.661  0.00  0.00    -0.082 A 
ATOM     64  H49 non d ame      -9.772   9.781  64.987  0.00  0.00     0.084 H 
ATOM     65  C32 non d ame      -7.704   8.799  62.467  0.00  0.00    -0.083 A 
ATOM     66  H50 non d ame      -8.384   7.847  64.284  0.00  0.00     0.083 H 
ATOM     67  C33 non d ame      -7.765   9.940  61.679  0.00  0.00    -0.082 A 
ATOM     68  H51 non d ame      -7.092   7.954  62.150  0.00  0.00     0.083 H 
ATOM     69  C34 non d ame      -8.545  11.026  62.070  0.00  0.00    -0.075 A 
ATOM     70  H52 non d ame      -7.197   9.984  60.749  0.00  0.00     0.083 H 
ATOM     71  H53 non d ame      -8.588  11.920  61.445  0.00  0.00     0.084 H 
ENDBRANCH  58  61
ENDBRANCH  57  58
ENDBRANCH  55  57
ENDBRANCH  52  55
ENDBRANCH  49  52
ENDBRANCH  47  49
BRANCH  47  72
ATOM     72  C24 non d ame     -12.190  14.510  69.095  0.00  0.00    -0.039 C 
ATOM     73  H35 non d ame     -11.554  15.353  68.824  0.00  0.00     0.036 H 
ATOM     74  H36 non d ame     -13.266  14.567  68.932  0.00  0.00     0.036 H 
BRANCH  72  75
ATOM     75  C25 non d ame     -11.963  14.230  70.656  0.00  0.00    -0.001 C 
ATOM     76  C26 non d ame     -13.345  13.644  71.327  0.00  0.00    -0.035 C 
ATOM     77  C27 non d ame     -13.641  14.377  72.427  0.00  0.00     0.085 C 
ATOM     78  H38 non d ame     -14.189  13.829  70.664  0.00  0.00     0.036 H 
ATOM     79  H39 non d ame     -13.173  12.644  71.725  0.00  0.00     0.036 H 
ATOM     80  N5  non d ame     -12.771  15.610  72.384  0.00  0.00    -0.049 N 
ATOM     81  H40 non d ame     -14.683  14.673  72.309  0.00  0.00     0.075 H 
ATOM     82  H41 non d ame     -13.341  13.762  73.276  0.00  0.00     0.075 H 
ATOM     83  C28 non d ame     -11.630  15.310  71.281  0.00  0.00     0.193 C 
ATOM     84  H42 non d ame     -13.356  16.361  72.044  0.00  0.00     0.280 HD
ATOM     85  H43 non d ame     -12.331  15.683  73.289  0.00  0.00     0.280 HD
ATOM     86  H44 non d ame     -10.615  15.057  71.589  0.00  0.00     0.129 H 
ATOM     87  H37 non d ame     -11.045  13.674  70.846  0.00  0.00     0.046 H 
BRANCH  83  88
ATOM     88  O6  non d ame     -11.494  16.424  70.398  0.00  0.00    -0.369 OA
ATOM     89  H45 non d ame     -11.930  16.228  69.566  0.00  0.00     0.212 HD
ENDBRANCH  83  88
ENDBRANCH  72  75
ENDBRANCH  47  72
ENDBRANCH  45  47
ENDBRANCH   1  43
BRANCH   1  90
ATOM     90  C16 non d ame     -11.013   9.765  70.936  0.00  0.00    -0.035 C 
ATOM     91  H21 non d ame     -10.230   9.972  71.666  0.00  0.00     0.037 H 
ATOM     92  H22 non d ame     -11.876  10.426  70.863  0.00  0.00     0.037 H 
BRANCH  90  93
ATOM     93  C17 non d ame     -11.570   8.347  71.277  0.00  0.00    -0.059 C 
ATOM     94  H23 non d ame     -12.657   8.417  71.310  0.00  0.00     0.038 H 
BRANCH  93  95
ATOM     95  C18 non d ame     -11.193   7.289  70.191  0.00  0.00    -0.073 C 
ATOM     96  H24 non d ame     -10.469   6.586  70.605  0.00  0.00     0.028 H 
ATOM     97  H25 non d ame     -12.089   6.748  69.885  0.00  0.00     0.028 H 
ATOM     98  H26 non d ame     -10.760   7.792  69.328  0.00  0.00     0.028 H 
ENDBRANCH  93  95
BRANCH  93  99
ATOM     99  C19 non d ame     -11.103   7.895  72.663  0.00  0.00    -0.073 C 
ATOM    100  H27 non d ame     -10.289   8.538  72.999  0.00  0.00     0.028 H 
ATOM    101  H28 non d ame     -11.933   7.962  73.366  0.00  0.00     0.028 H 
ATOM    102  H29 non d ame     -10.753   6.865  72.611  0.00  0.00     0.028 H 
ENDBRANCH  93  99
ENDBRANCH  90  93
ENDBRANCH   1  90
TORSDOF 26
ENDMDL
MODEL 18
REMARK VINA RESULT:      -6.3      3.650      7.841
REMARK  26 active torsions:
REMARK  status: ('A' for Active; 'I' for Inactive)
REMARK    1  A    between atoms: C2_2  and  C3_3 
REMARK    2  A    between atoms: C4_6  and  C5_7 
REMARK       I    between atoms: C5_7  and  N2_9 
REMARK    3  A    between atoms: N2_9  and  C6_10 
REMARK    4  A    between atoms: C6_10  and  C7_11 
REMARK    5  A    between atoms: C6_10  and  C8_13 
REMARK       I    between atoms: C7_11  and  N3_14 
REMARK    6  A    between atoms: N3_14  and  C9_15 
REMARK    7  A    between atoms: C9_15  and  C10_16 
REMARK    8  A    between atoms: C9_15  and  C11_18 
REMARK       I    between atoms: C10_16  and  N4_21 
REMARK    9  A    between atoms: C11_18  and  C12_19 
REMARK   10  A    between atoms: C11_18  and  C13_20 
REMARK   11  A    between atoms: N4_21  and  C14_22 
REMARK   12  A    between atoms: C14_22  and  C15_23 
REMARK   13  A    between atoms: C14_22  and  C16_25 
REMARK       I    between atoms: C15_23  and  N6_40 
REMARK   14  A    between atoms: C16_25  and  C17_26 
REMARK   15  A    between atoms: C17_26  and  C18_27 
REMARK   16  A    between atoms: C17_26  and  C19_28 
REMARK   17  A    between atoms: C20_29  and  C21_30 
REMARK   18  A    between atoms: C20_29  and  C24_33 
REMARK   19  A    between atoms: C20_29  and  N6_40 
REMARK   20  A    between atoms: C21_30  and  C22_31 
REMARK   21  A    between atoms: C22_31  and  C23_32 
REMARK   22  A    between atoms: C23_32  and  O8_43 
REMARK   23  A    between atoms: C24_33  and  C25_34 
REMARK   24  A    between atoms: C28_38  and  O6_39 
REMARK   25  A    between atoms: C29_42  and  O8_43 
REMARK   26  A    between atoms: C29_42  and  C35_49 
ROOT
ATOM      1  C14 non d ame      -9.254   6.169  67.299  0.00  0.00     0.089 C 
ATOM      2  H20 non d ame      -8.345   5.582  67.428  0.00  0.00     0.087 H 
ENDROOT
BRANCH   1   3
ATOM      3  N4  non d ame      -9.917   6.242  68.592  0.00  0.00    -0.346 N 
ATOM      4  C10 non d ame      -9.171   5.879  69.852  0.00  0.00     0.241 C 
ATOM      5  O4  non d ame      -8.038   5.529  69.798  0.00  0.00    -0.271 OA
ATOM      6  H19 non d ame     -10.883   6.539  68.615  0.00  0.00     0.163 HD
BRANCH   4   7
ATOM      7  C9  non d ame      -9.871   5.965  71.182  0.00  0.00     0.092 C 
ATOM      8  H11 non d ame      -9.181   6.364  71.926  0.00  0.00     0.088 H 
BRANCH   7   9
ATOM      9  N3  non d ame     -10.992   6.905  71.086  0.00  0.00    -0.346 N 
ATOM     10  C7  non d ame     -11.288   7.790  72.185  0.00  0.00     0.240 C 
ATOM     11  O3  non d ame     -10.636   7.758  73.156  0.00  0.00    -0.271 OA
ATOM     12  H10 non d ame     -11.564   6.943  70.255  0.00  0.00     0.163 HD
BRANCH  10  13
ATOM     13  C6  non d ame     -12.484   8.786  72.077  0.00  0.00     0.086 C 
ATOM     14  H6  non d ame     -12.715   9.273  73.024  0.00  0.00     0.086 H 
BRANCH  13  15
ATOM     15  N2  non d ame     -12.135   9.842  71.141  0.00  0.00    -0.343 N 
ATOM     16  C5  non d ame     -12.712  11.177  71.313  0.00  0.00     0.273 C 
ATOM     17  O2  non d ame     -13.458  11.390  72.204  0.00  0.00    -0.266 OA
ATOM     18  H5  non d ame     -11.499   9.650  70.380  0.00  0.00     0.163 HD
BRANCH  16  19
ATOM     19  C4  non d ame     -12.350  12.304  70.332  0.00  0.00     0.154 A 
ATOM     20  C1  non d ame     -12.331  13.709  70.600  0.00  0.00    -0.017 A 
ATOM     21  C2  non d ame     -11.937  14.306  69.381  0.00  0.00     0.077 A 
ATOM     22  H1  non d ame     -12.567  14.219  71.535  0.00  0.00     0.091 H 
ATOM     23  O1  non d ame     -11.752  13.347  68.522  0.00  0.00    -0.218 OA
ATOM     24  N1  non d ame     -11.988  12.169  69.053  0.00  0.00    -0.123 NA
BRANCH  21  25
ATOM     25  C3  non d ame     -11.759  15.796  69.124  0.00  0.00    -0.029 C 
ATOM     26  H2  non d ame     -11.433  15.952  68.094  0.00  0.00     0.036 H 
ATOM     27  H3  non d ame     -12.707  16.309  69.285  0.00  0.00     0.036 H 
ATOM     28  H4  non d ame     -11.009  16.197  69.806  0.00  0.00     0.036 H 
ENDBRANCH  21  25
ENDBRANCH  16  19
ENDBRANCH  13  15
BRANCH  13  29
ATOM     29  C8  non d ame     -13.710   8.053  71.594  0.00  0.00    -0.049 C 
ATOM     30  H7  non d ame     -13.443   7.030  71.331  0.00  0.00     0.030 H 
ATOM     31  H8  non d ame     -14.461   8.041  72.386  0.00  0.00     0.030 H 
ATOM     32  H9  non d ame     -14.114   8.559  70.718  0.00  0.00     0.030 H 
ENDBRANCH  13  29
ENDBRANCH  10  13
ENDBRANCH   7   9
BRANCH   7  33
ATOM     33  C11 non d ame     -10.409   4.559  71.578  0.00  0.00    -0.033 C 
ATOM     34  H12 non d ame     -11.473   4.535  71.339  0.00  0.00     0.042 H 
BRANCH  33  35
ATOM     35  C12 non d ame      -9.718   3.432  70.749  0.00  0.00    -0.071 C 
ATOM     36  H13 non d ame      -9.359   3.843  69.805  0.00  0.00     0.028 H 
ATOM     37  H14 non d ame      -8.876   3.030  71.312  0.00  0.00     0.028 H 
ATOM     38  H15 non d ame     -10.435   2.636  70.550  0.00  0.00     0.028 H 
ENDBRANCH  33  35
BRANCH  33  39
ATOM     39  C13 non d ame     -10.251   4.311  73.112  0.00  0.00    -0.071 C 
ATOM     40  H16 non d ame     -11.093   3.721  73.473  0.00  0.00     0.028 H 
ATOM     41  H17 non d ame      -9.322   3.774  73.300  0.00  0.00     0.028 H 
ATOM     42  H18 non d ame     -10.230   5.268  73.633  0.00  0.00     0.028 H 
ENDBRANCH  33  39
ENDBRANCH   7  33
ENDBRANCH   4   7
ENDBRANCH   1   3
BRANCH   1  43
ATOM     43  C15 non d ame      -8.954   7.617  66.814  0.00  0.00     0.240 C 
ATOM     44  O5  non d ame      -8.437   8.393  67.552  0.00  0.00    -0.271 OA
ATOM     45  N6  non d ame      -9.304   8.034  65.426  0.00  0.00    -0.355 N 
ATOM     46  H46 non d ame      -9.739   7.384  64.789  0.00  0.00     0.162 HD
BRANCH  45  47
ATOM     47  C20 non d ame      -9.011   9.414  64.981  0.00  0.00     0.013 C 
ATOM     48  H30 non d ame      -8.210   9.806  65.607  0.00  0.00     0.072 H 
BRANCH  47  49
ATOM     49  C21 non d ame     -10.252  10.264  65.137  0.00  0.00    -0.038 C 
ATOM     50  H31 non d ame     -11.088   9.565  65.152  0.00  0.00     0.036 H 
ATOM     51  H32 non d ame     -10.062  10.906  65.998  0.00  0.00     0.036 H 
BRANCH  49  52
ATOM     52  C22 non d ame     -10.489  11.204  63.936  0.00  0.00     0.018 C 
ATOM     53  H33 non d ame      -9.685  11.940  63.972  0.00  0.00     0.048 H 
ATOM     54  H34 non d ame     -10.593  10.554  63.067  0.00  0.00     0.048 H 
BRANCH  52  55
ATOM     55  C23 non d ame     -11.813  12.013  64.027  0.00  0.00     0.259 C 
ATOM     56  O7  non d ame     -12.664  11.870  63.210  0.00  0.00    -0.265 OA
BRANCH  55  57
ATOM     57  O8  non d ame     -11.992  12.940  65.091  0.00  0.00    -0.317 OA
BRANCH  57  58
ATOM     58  C29 non d ame     -11.868  14.310  64.699  0.00  0.00     0.052 C 
ATOM     59  H47 non d ame     -11.621  14.293  63.638  0.00  0.00     0.082 H 
ATOM     60  H48 non d ame     -12.783  14.797  65.037  0.00  0.00     0.082 H 
BRANCH  58  61
ATOM     61  C35 non d ame     -10.671  14.923  65.473  0.00  0.00    -0.034 A 
ATOM     62  C30 non d ame     -10.479  16.300  65.482  0.00  0.00    -0.075 A 
ATOM     63  C31 non d ame      -9.403  16.851  66.176  0.00  0.00    -0.082 A 
ATOM     64  H49 non d ame     -11.170  16.948  64.944  0.00  0.00     0.084 H 
ATOM     65  C32 non d ame      -8.516  16.018  66.863  0.00  0.00    -0.083 A 
ATOM     66  H50 non d ame      -9.256  17.931  66.183  0.00  0.00     0.083 H 
ATOM     67  C33 non d ame      -8.709  14.643  66.849  0.00  0.00    -0.082 A 
ATOM     68  H51 non d ame      -7.672  16.440  67.409  0.00  0.00     0.083 H 
ATOM     69  C34 non d ame      -9.785  14.089  66.157  0.00  0.00    -0.075 A 
ATOM     70  H52 non d ame      -8.014  13.995  67.383  0.00  0.00     0.083 H 
ATOM     71  H53 non d ame      -9.931  13.007  66.152  0.00  0.00     0.084 H 
ENDBRANCH  58  61
ENDBRANCH  57  58
ENDBRANCH  55  57
ENDBRANCH  52  55
ENDBRANCH  49  52
ENDBRANCH  47  49
BRANCH  47  72
ATOM     72  C24 non d ame      -8.581   9.403  63.516  0.00  0.00    -0.039 C 
ATOM     73  H35 non d ame      -9.054   8.522  63.081  0.00  0.00     0.036 H 
ATOM     74  H36 non d ame      -8.824  10.395  63.134  0.00  0.00     0.036 H 
BRANCH  72  75
ATOM     75  C25 non d ame      -6.998   9.212  63.364  0.00  0.00    -0.001 C 
ATOM     76  C26 non d ame      -6.232   9.801  64.694  0.00  0.00    -0.035 C 
ATOM     77  C27 non d ame      -5.256  10.652  64.296  0.00  0.00     0.085 C 
ATOM     78  H38 non d ame      -6.909  10.439  65.263  0.00  0.00     0.036 H 
ATOM     79  H39 non d ame      -5.686   9.003  65.197  0.00  0.00     0.036 H 
ATOM     80  N5  non d ame      -5.497  10.948  62.836  0.00  0.00    -0.049 N 
ATOM     81  H40 non d ame      -5.409  11.564  64.874  0.00  0.00     0.075 H 
ATOM     82  H41 non d ame      -4.326  10.093  64.396  0.00  0.00     0.075 H 
ATOM     83  C28 non d ame      -6.550   9.835  62.325  0.00  0.00     0.193 C 
ATOM     84  H42 non d ame      -5.943  11.853  62.797  0.00  0.00     0.280 HD
ATOM     85  H43 non d ame      -4.617  10.798  62.364  0.00  0.00     0.280 HD
ATOM     86  H44 non d ame      -6.215   8.993  61.718  0.00  0.00     0.129 H 
ATOM     87  H37 non d ame      -6.732   8.205  63.044  0.00  0.00     0.046 H 
BRANCH  83  88
ATOM     88  O6  non d ame      -7.595  10.455  61.575  0.00  0.00    -0.369 OA
ATOM     89  H45 non d ame      -7.293  11.304  61.246  0.00  0.00     0.212 HD
ENDBRANCH  83  88
ENDBRANCH  72  75
ENDBRANCH  47  72
ENDBRANCH  45  47
ENDBRANCH   1  43
BRANCH   1  90
ATOM     90  C16 non d ame     -10.176   5.478  66.306  0.00  0.00    -0.035 C 
ATOM     91  H21 non d ame     -11.058   5.195  66.880  0.00  0.00     0.037 H 
ATOM     92  H22 non d ame     -10.270   6.171  65.470  0.00  0.00     0.037 H 
BRANCH  90  93
ATOM     93  C17 non d ame      -9.588   4.155  65.721  0.00  0.00    -0.059 C 
ATOM     94  H23 non d ame      -8.621   4.391  65.277  0.00  0.00     0.038 H 
BRANCH  93  95
ATOM     95  C18 non d ame      -9.356   3.074  66.823  0.00  0.00    -0.073 C 
ATOM     96  H24 non d ame      -9.355   3.550  67.804  0.00  0.00     0.028 H 
ATOM     97  H25 non d ame     -10.155   2.334  66.781  0.00  0.00     0.028 H 
ATOM     98  H26 non d ame      -8.397   2.583  66.656  0.00  0.00     0.028 H 
ENDBRANCH  93  95
BRANCH  93  99
ATOM     99  C19 non d ame     -10.479   3.610  64.601  0.00  0.00    -0.073 C 
ATOM    100  H27 non d ame     -10.006   2.735  64.155  0.00  0.00     0.028 H 
ATOM    101  H28 non d ame     -11.449   3.329  65.013  0.00  0.00     0.028 H 
ATOM    102  H29 non d ame     -10.615   4.377  63.839  0.00  0.00     0.028 H 
ENDBRANCH  93  99
ENDBRANCH  90  93
ENDBRANCH   1  90
TORSDOF 26
ENDMDL
MODEL 19
REMARK VINA RESULT:      -6.3      3.066      7.318
REMARK  26 active torsions:
REMARK  status: ('A' for Active; 'I' for Inactive)
REMARK    1  A    between atoms: C2_2  and  C3_3 
REMARK    2  A    between atoms: C4_6  and  C5_7 
REMARK       I    between atoms: C5_7  and  N2_9 
REMARK    3  A    between atoms: N2_9  and  C6_10 
REMARK    4  A    between atoms: C6_10  and  C7_11 
REMARK    5  A    between atoms: C6_10  and  C8_13 
REMARK       I    between atoms: C7_11  and  N3_14 
REMARK    6  A    between atoms: N3_14  and  C9_15 
REMARK    7  A    between atoms: C9_15  and  C10_16 
REMARK    8  A    between atoms: C9_15  and  C11_18 
REMARK       I    between atoms: C10_16  and  N4_21 
REMARK    9  A    between atoms: C11_18  and  C12_19 
REMARK   10  A    between atoms: C11_18  and  C13_20 
REMARK   11  A    between atoms: N4_21  and  C14_22 
REMARK   12  A    between atoms: C14_22  and  C15_23 
REMARK   13  A    between atoms: C14_22  and  C16_25 
REMARK       I    between atoms: C15_23  and  N6_40 
REMARK   14  A    between atoms: C16_25  and  C17_26 
REMARK   15  A    between atoms: C17_26  and  C18_27 
REMARK   16  A    between atoms: C17_26  and  C19_28 
REMARK   17  A    between atoms: C20_29  and  C21_30 
REMARK   18  A    between atoms: C20_29  and  C24_33 
REMARK   19  A    between atoms: C20_29  and  N6_40 
REMARK   20  A    between atoms: C21_30  and  C22_31 
REMARK   21  A    between atoms: C22_31  and  C23_32 
REMARK   22  A    between atoms: C23_32  and  O8_43 
REMARK   23  A    between atoms: C24_33  and  C25_34 
REMARK   24  A    between atoms: C28_38  and  O6_39 
REMARK   25  A    between atoms: C29_42  and  O8_43 
REMARK   26  A    between atoms: C29_42  and  C35_49 
ROOT
ATOM      1  C14 non d ame     -10.129  10.282  64.490  0.00  0.00     0.089 C 
ATOM      2  H20 non d ame     -10.939   9.602  64.753  0.00  0.00     0.087 H 
ENDROOT
BRANCH   1   3
ATOM      3  N4  non d ame      -9.460  10.666  65.723  0.00  0.00    -0.346 N 
ATOM      4  C10 non d ame      -9.932  10.121  67.048  0.00  0.00     0.241 C 
ATOM      5  O4  non d ame     -10.856   9.376  67.095  0.00  0.00    -0.271 OA
ATOM      6  H19 non d ame      -8.677  11.303  65.661  0.00  0.00     0.163 HD
BRANCH   4   7
ATOM      7  C9  non d ame      -9.224  10.524  68.314  0.00  0.00     0.092 C 
ATOM      8  H11 non d ame      -8.163  10.661  68.104  0.00  0.00     0.088 H 
BRANCH   7   9
ATOM      9  N3  non d ame      -9.744  11.815  68.775  0.00  0.00    -0.346 N 
ATOM     10  C7  non d ame      -9.238  13.040  68.208  0.00  0.00     0.240 C 
ATOM     11  O3  non d ame      -8.411  13.006  67.379  0.00  0.00    -0.271 OA
ATOM     12  H10 non d ame     -10.455  11.860  69.490  0.00  0.00     0.163 HD
BRANCH  10  13
ATOM     13  C6  non d ame      -9.793  14.411  68.705  0.00  0.00     0.086 C 
ATOM     14  H6  non d ame      -9.416  14.686  69.690  0.00  0.00     0.086 H 
BRANCH  13  15
ATOM     15  N2  non d ame      -9.361  15.454  67.789  0.00  0.00    -0.343 N 
ATOM     16  C5  non d ame      -8.289  16.367  68.191  0.00  0.00     0.273 C 
ATOM     17  O2  non d ame      -7.782  16.256  69.252  0.00  0.00    -0.266 OA
ATOM     18  H5  non d ame      -9.801  15.543  66.885  0.00  0.00     0.163 HD
BRANCH  16  19
ATOM     19  C4  non d ame      -7.821  17.473  67.232  0.00  0.00     0.154 A 
ATOM     20  C1  non d ame      -7.256  18.740  67.583  0.00  0.00    -0.017 A 
ATOM     21  C2  non d ame      -6.999  19.379  66.350  0.00  0.00     0.077 A 
ATOM     22  H1  non d ame      -7.061  19.136  68.581  0.00  0.00     0.091 H 
ATOM     23  O1  non d ame      -7.375  18.565  65.406  0.00  0.00    -0.218 OA
ATOM     24  N1  non d ame      -7.859  17.447  65.897  0.00  0.00    -0.123 NA
BRANCH  21  25
ATOM     25  C3  non d ame      -6.393  20.763  66.160  0.00  0.00    -0.029 C 
ATOM     26  H2  non d ame      -5.474  20.681  65.577  0.00  0.00     0.036 H 
ATOM     27  H3  non d ame      -7.102  21.401  65.633  0.00  0.00     0.036 H 
ATOM     28  H4  non d ame      -6.167  21.198  67.134  0.00  0.00     0.036 H 
ENDBRANCH  21  25
ENDBRANCH  16  19
ENDBRANCH  13  15
BRANCH  13  29
ATOM     29  C8  non d ame     -11.298  14.359  68.756  0.00  0.00    -0.049 C 
ATOM     30  H7  non d ame     -11.670  15.182  69.367  0.00  0.00     0.030 H 
ATOM     31  H8  non d ame     -11.699  14.448  67.745  0.00  0.00     0.030 H 
ATOM     32  H9  non d ame     -11.615  13.412  69.191  0.00  0.00     0.030 H 
ENDBRANCH  13  29
ENDBRANCH  10  13
ENDBRANCH   7   9
BRANCH   7  33
ATOM     33  C11 non d ame      -9.470   9.447  69.411  0.00  0.00    -0.033 C 
ATOM     34  H12 non d ame      -9.808   8.539  68.911  0.00  0.00     0.042 H 
BRANCH  33  35
ATOM     35  C12 non d ame      -8.152   9.100  70.172  0.00  0.00    -0.071 C 
ATOM     36  H13 non d ame      -8.390   8.803  71.194  0.00  0.00     0.028 H 
ATOM     37  H14 non d ame      -7.645   8.279  69.665  0.00  0.00     0.028 H 
ATOM     38  H15 non d ame      -7.502   9.974  70.188  0.00  0.00     0.028 H 
ENDBRANCH  33  35
BRANCH  33  39
ATOM     39  C13 non d ame     -10.591   9.901  70.399  0.00  0.00    -0.071 C 
ATOM     40  H16 non d ame     -10.531   9.311  71.313  0.00  0.00     0.028 H 
ATOM     41  H17 non d ame     -10.461  10.957  70.638  0.00  0.00     0.028 H 
ATOM     42  H18 non d ame     -11.566   9.752  69.934  0.00  0.00     0.028 H 
ENDBRANCH  33  39
ENDBRANCH   7  33
ENDBRANCH   4   7
ENDBRANCH   1   3
BRANCH   1  43
ATOM     43  C15 non d ame      -9.087   9.617  63.546  0.00  0.00     0.240 C 
ATOM     44  O5  non d ame      -8.777  10.156  62.532  0.00  0.00    -0.271 OA
ATOM     45  N6  non d ame      -8.466   8.312  63.910  0.00  0.00    -0.355 N 
ATOM     46  H46 non d ame      -8.717   7.846  64.771  0.00  0.00     0.162 HD
BRANCH  45  47
ATOM     47  C20 non d ame      -7.475   7.693  63.003  0.00  0.00     0.013 C 
ATOM     48  H30 non d ame      -7.751   7.950  61.981  0.00  0.00     0.072 H 
BRANCH  47  49
ATOM     49  C21 non d ame      -7.502   6.192  63.183  0.00  0.00    -0.038 C 
ATOM     50  H31 non d ame      -7.975   5.796  62.284  0.00  0.00     0.036 H 
ATOM     51  H32 non d ame      -6.478   5.908  63.432  0.00  0.00     0.036 H 
BRANCH  49  52
ATOM     52  C22 non d ame      -8.379   5.746  64.372  0.00  0.00     0.018 C 
ATOM     53  H33 non d ame      -8.886   6.646  64.720  0.00  0.00     0.048 H 
ATOM     54  H34 non d ame      -8.961   4.899  64.008  0.00  0.00     0.048 H 
BRANCH  52  55
ATOM     55  C23 non d ame      -7.566   5.217  65.587  0.00  0.00     0.259 C 
ATOM     56  O7  non d ame      -6.397   5.025  65.491  0.00  0.00    -0.265 OA
BRANCH  55  57
ATOM     57  O8  non d ame      -8.236   4.952  66.813  0.00  0.00    -0.317 OA
BRANCH  57  58
ATOM     58  C29 non d ame      -9.586   5.422  66.853  0.00  0.00     0.052 C 
ATOM     59  H47 non d ame      -9.582   6.380  66.334  0.00  0.00     0.082 H 
ATOM     60  H48 non d ame     -10.195   4.601  66.475  0.00  0.00     0.082 H 
BRANCH  58  61
ATOM     61  C35 non d ame      -9.963   5.669  68.338  0.00  0.00    -0.034 A 
ATOM     62  C30 non d ame      -9.040   5.404  69.344  0.00  0.00    -0.075 A 
ATOM     63  C31 non d ame      -9.378   5.626  70.678  0.00  0.00    -0.082 A 
ATOM     64  H49 non d ame      -8.052   5.022  69.088  0.00  0.00     0.084 H 
ATOM     65  C32 non d ame     -10.647   6.113  71.004  0.00  0.00    -0.083 A 
ATOM     66  H50 non d ame      -8.653   5.419  71.464  0.00  0.00     0.083 H 
ATOM     67  C33 non d ame     -11.567   6.373  69.997  0.00  0.00    -0.082 A 
ATOM     68  H51 non d ame     -10.920   6.289  72.045  0.00  0.00     0.083 H 
ATOM     69  C34 non d ame     -11.231   6.155  68.662  0.00  0.00    -0.075 A 
ATOM     70  H52 non d ame     -12.556   6.751  70.255  0.00  0.00     0.083 H 
ATOM     71  H53 non d ame     -11.959   6.363  67.876  0.00  0.00     0.084 H 
ENDBRANCH  58  61
ENDBRANCH  57  58
ENDBRANCH  55  57
ENDBRANCH  52  55
ENDBRANCH  49  52
ENDBRANCH  47  49
BRANCH  47  72
ATOM     72  C24 non d ame      -6.080   8.221  63.326  0.00  0.00    -0.039 C 
ATOM     73  H35 non d ame      -5.418   7.357  63.256  0.00  0.00     0.036 H 
ATOM     74  H36 non d ame      -5.932   9.075  62.665  0.00  0.00     0.036 H 
BRANCH  72  75
ATOM     75  C25 non d ame      -5.986   8.767  64.830  0.00  0.00    -0.001 C 
ATOM     76  C26 non d ame      -5.660  10.378  64.822  0.00  0.00    -0.035 C 
ATOM     77  C27 non d ame      -4.600  10.614  65.631  0.00  0.00     0.085 C 
ATOM     78  H38 non d ame      -5.302  10.682  63.838  0.00  0.00     0.036 H 
ATOM     79  H39 non d ame      -6.472  10.927  65.300  0.00  0.00     0.036 H 
ATOM     80  N5  non d ame      -3.969   9.276  65.933  0.00  0.00    -0.049 N 
ATOM     81  H40 non d ame      -3.905  11.208  65.037  0.00  0.00     0.075 H 
ATOM     82  H41 non d ame      -5.020  11.023  66.550  0.00  0.00     0.075 H 
ATOM     83  C28 non d ame      -5.052   8.164  65.488  0.00  0.00     0.193 C 
ATOM     84  H42 non d ame      -3.162   9.198  65.331  0.00  0.00     0.280 HD
ATOM     85  H43 non d ame      -3.857   9.232  66.936  0.00  0.00     0.280 HD
ATOM     86  H44 non d ame      -5.645   7.638  66.237  0.00  0.00     0.129 H 
ATOM     87  H37 non d ame      -6.822   8.433  65.443  0.00  0.00     0.046 H 
BRANCH  83  88
ATOM     88  O6  non d ame      -4.419   7.143  64.715  0.00  0.00    -0.369 OA
ATOM     89  H45 non d ame      -3.568   6.929  65.103  0.00  0.00     0.212 HD
ENDBRANCH  83  88
ENDBRANCH  72  75
ENDBRANCH  47  72
ENDBRANCH  45  47
ENDBRANCH   1  43
BRANCH   1  90
ATOM     90  C16 non d ame     -10.698  11.527  63.825  0.00  0.00    -0.035 C 
ATOM     91  H21 non d ame      -9.857  11.986  63.305  0.00  0.00     0.037 H 
ATOM     92  H22 non d ame     -11.565  11.183  63.262  0.00  0.00     0.037 H 
BRANCH  90  93
ATOM     93  C17 non d ame     -11.224  12.593  64.838  0.00  0.00    -0.059 C 
ATOM     94  H23 non d ame     -11.039  12.213  65.843  0.00  0.00     0.038 H 
BRANCH  93  95
ATOM     95  C18 non d ame     -10.477  13.957  64.700  0.00  0.00    -0.073 C 
ATOM     96  H24 non d ame     -10.765  14.436  63.764  0.00  0.00     0.028 H 
ATOM     97  H25 non d ame     -10.745  14.605  65.535  0.00  0.00     0.028 H 
ATOM     98  H26 non d ame      -9.401  13.786  64.705  0.00  0.00     0.028 H 
ENDBRANCH  93  95
BRANCH  93  99
ATOM     99  C19 non d ame     -12.737  12.782  64.696  0.00  0.00    -0.073 C 
ATOM    100  H27 non d ame     -13.253  11.965  65.199  0.00  0.00     0.028 H 
ATOM    101  H28 non d ame     -13.028  13.730  65.148  0.00  0.00     0.028 H 
ATOM    102  H29 non d ame     -13.004  12.785  63.640  0.00  0.00     0.028 H 
ENDBRANCH  93  99
ENDBRANCH  90  93
ENDBRANCH   1  90
TORSDOF 26
ENDMDL
MODEL 20
REMARK VINA RESULT:      -6.3      3.244      7.369
REMARK  26 active torsions:
REMARK  status: ('A' for Active; 'I' for Inactive)
REMARK    1  A    between atoms: C2_2  and  C3_3 
REMARK    2  A    between atoms: C4_6  and  C5_7 
REMARK       I    between atoms: C5_7  and  N2_9 
REMARK    3  A    between atoms: N2_9  and  C6_10 
REMARK    4  A    between atoms: C6_10  and  C7_11 
REMARK    5  A    between atoms: C6_10  and  C8_13 
REMARK       I    between atoms: C7_11  and  N3_14 
REMARK    6  A    between atoms: N3_14  and  C9_15 
REMARK    7  A    between atoms: C9_15  and  C10_16 
REMARK    8  A    between atoms: C9_15  and  C11_18 
REMARK       I    between atoms: C10_16  and  N4_21 
REMARK    9  A    between atoms: C11_18  and  C12_19 
REMARK   10  A    between atoms: C11_18  and  C13_20 
REMARK   11  A    between atoms: N4_21  and  C14_22 
REMARK   12  A    between atoms: C14_22  and  C15_23 
REMARK   13  A    between atoms: C14_22  and  C16_25 
REMARK       I    between atoms: C15_23  and  N6_40 
REMARK   14  A    between atoms: C16_25  and  C17_26 
REMARK   15  A    between atoms: C17_26  and  C18_27 
REMARK   16  A    between atoms: C17_26  and  C19_28 
REMARK   17  A    between atoms: C20_29  and  C21_30 
REMARK   18  A    between atoms: C20_29  and  C24_33 
REMARK   19  A    between atoms: C20_29  and  N6_40 
REMARK   20  A    between atoms: C21_30  and  C22_31 
REMARK   21  A    between atoms: C22_31  and  C23_32 
REMARK   22  A    between atoms: C23_32  and  O8_43 
REMARK   23  A    between atoms: C24_33  and  C25_34 
REMARK   24  A    between atoms: C28_38  and  O6_39 
REMARK   25  A    between atoms: C29_42  and  O8_43 
REMARK   26  A    between atoms: C29_42  and  C35_49 
ROOT
ATOM      1  C14 non d ame      -9.902   7.946  68.280  0.00  0.00     0.089 C 
ATOM      2  H20 non d ame     -10.880   7.484  68.417  0.00  0.00     0.087 H 
ENDROOT
BRANCH   1   3
ATOM      3  N4  non d ame      -9.084   7.023  67.507  0.00  0.00    -0.346 N 
ATOM      4  C10 non d ame      -9.678   5.744  66.972  0.00  0.00     0.241 C 
ATOM      5  O4  non d ame     -10.816   5.478  67.180  0.00  0.00    -0.271 OA
ATOM      6  H19 non d ame      -8.117   7.267  67.344  0.00  0.00     0.163 HD
BRANCH   4   7
ATOM      7  C9  non d ame      -8.819   4.803  66.170  0.00  0.00     0.092 C 
ATOM      8  H11 non d ame      -9.415   4.371  65.366  0.00  0.00     0.088 H 
BRANCH   7   9
ATOM      9  N3  non d ame      -7.727   5.552  65.542  0.00  0.00    -0.346 N 
ATOM     10  C7  non d ame      -7.816   5.931  64.154  0.00  0.00     0.240 C 
ATOM     11  O3  non d ame      -8.759   5.640  63.525  0.00  0.00    -0.271 OA
ATOM     12  H10 non d ame      -6.906   5.809  66.071  0.00  0.00     0.163 HD
BRANCH  10  13
ATOM     13  C6  non d ame      -6.648   6.726  63.492  0.00  0.00     0.086 C 
ATOM     14  H6  non d ame      -6.959   7.269  62.599  0.00  0.00     0.086 H 
BRANCH  13  15
ATOM     15  N2  non d ame      -6.160   7.719  64.434  0.00  0.00    -0.343 N 
ATOM     16  C5  non d ame      -6.653   9.096  64.349  0.00  0.00     0.273 C 
ATOM     17  O2  non d ame      -7.440   9.394  63.519  0.00  0.00    -0.266 OA
ATOM     18  H5  non d ame      -5.487   7.457  65.139  0.00  0.00     0.163 HD
BRANCH  16  19
ATOM     19  C4  non d ame      -6.149  10.157  65.340  0.00  0.00     0.154 A 
ATOM     20  C1  non d ame      -6.626  10.396  66.668  0.00  0.00    -0.017 A 
ATOM     21  C2  non d ame      -5.840  11.466  67.151  0.00  0.00     0.077 A 
ATOM     22  H1  non d ame      -7.421   9.873  67.201  0.00  0.00     0.091 H 
ATOM     23  O1  non d ame      -5.010  11.795  66.203  0.00  0.00    -0.218 OA
ATOM     24  N1  non d ame      -5.172  11.045  65.137  0.00  0.00    -0.123 NA
BRANCH  21  25
ATOM     25  C3  non d ame      -5.943  12.113  68.525  0.00  0.00    -0.029 C 
ATOM     26  H2  non d ame      -6.614  12.971  68.474  0.00  0.00     0.036 H 
ATOM     27  H3  non d ame      -6.334  11.388  69.239  0.00  0.00     0.036 H 
ATOM     28  H4  non d ame      -4.955  12.442  68.848  0.00  0.00     0.036 H 
ENDBRANCH  21  25
ENDBRANCH  16  19
ENDBRANCH  13  15
BRANCH  13  29
ATOM     29  C8  non d ame      -5.536   5.777  63.122  0.00  0.00    -0.049 C 
ATOM     30  H7  non d ame      -5.337   5.849  62.052  0.00  0.00     0.030 H 
ATOM     31  H8  non d ame      -4.635   6.040  63.678  0.00  0.00     0.030 H 
ATOM     32  H9  non d ame      -5.831   4.758  63.368  0.00  0.00     0.030 H 
ENDBRANCH  13  29
ENDBRANCH  10  13
ENDBRANCH   7   9
BRANCH   7  33
ATOM     33  C11 non d ame      -8.225   3.713  67.109  0.00  0.00    -0.033 C 
ATOM     34  H12 non d ame      -7.358   3.284  66.607  0.00  0.00     0.042 H 
BRANCH  33  35
ATOM     35  C12 non d ame      -7.731   4.330  68.454  0.00  0.00    -0.071 C 
ATOM     36  H13 non d ame      -8.294   5.238  68.666  0.00  0.00     0.028 H 
ATOM     37  H14 non d ame      -7.883   3.612  69.261  0.00  0.00     0.028 H 
ATOM     38  H15 non d ame      -6.670   4.568  68.376  0.00  0.00     0.028 H 
ENDBRANCH  33  35
BRANCH  33  39
ATOM     39  C13 non d ame      -9.257   2.566  67.357  0.00  0.00    -0.071 C 
ATOM     40  H16 non d ame      -9.056   2.098  68.320  0.00  0.00     0.028 H 
ATOM     41  H17 non d ame     -10.266   2.978  67.356  0.00  0.00     0.028 H 
ATOM     42  H18 non d ame      -9.168   1.822  66.566  0.00  0.00     0.028 H 
ENDBRANCH  33  39
ENDBRANCH   7  33
ENDBRANCH   4   7
ENDBRANCH   1   3
BRANCH   1  43
ATOM     43  C15 non d ame      -9.992   9.294  67.509  0.00  0.00     0.240 C 
ATOM     44  O5  non d ame      -9.980   9.296  66.319  0.00  0.00    -0.271 OA
ATOM     45  N6  non d ame     -10.100  10.581  68.251  0.00  0.00    -0.355 N 
ATOM     46  H46 non d ame     -10.115  10.592  69.261  0.00  0.00     0.162 HD
BRANCH  45  47
ATOM     47  C20 non d ame     -10.186  11.854  67.503  0.00  0.00     0.013 C 
ATOM     48  H30 non d ame      -9.674  11.718  66.550  0.00  0.00     0.072 H 
BRANCH  47  49
ATOM     49  C21 non d ame      -9.511  12.949  68.299  0.00  0.00    -0.038 C 
ATOM     50  H31 non d ame     -10.299  13.406  68.897  0.00  0.00     0.036 H 
ATOM     51  H32 non d ame      -8.659  12.474  68.788  0.00  0.00     0.036 H 
BRANCH  49  52
ATOM     52  C22 non d ame      -8.932  14.068  67.407  0.00  0.00     0.018 C 
ATOM     53  H33 non d ame      -7.937  14.276  67.801  0.00  0.00     0.048 H 
ATOM     54  H34 non d ame      -9.051  13.719  66.381  0.00  0.00     0.048 H 
BRANCH  52  55
ATOM     55  C23 non d ame      -9.715  15.408  67.498  0.00  0.00     0.259 C 
ATOM     56  O7  non d ame     -10.165  15.910  66.520  0.00  0.00    -0.265 OA
BRANCH  55  57
ATOM     57  O8  non d ame      -9.877  16.036  68.763  0.00  0.00    -0.317 OA
BRANCH  57  58
ATOM     58  C29 non d ame     -11.210  16.487  69.024  0.00  0.00     0.052 C 
ATOM     59  H47 non d ame     -11.119  17.542  69.284  0.00  0.00     0.082 H 
ATOM     60  H48 non d ame     -11.797  16.188  68.156  0.00  0.00     0.082 H 
BRANCH  58  61
ATOM     61  C35 non d ame     -11.741  15.720  70.264  0.00  0.00    -0.034 A 
ATOM     62  C30 non d ame     -12.351  14.480  70.107  0.00  0.00    -0.075 A 
ATOM     63  C31 non d ame     -12.829  13.791  71.221  0.00  0.00    -0.082 A 
ATOM     64  H49 non d ame     -12.456  14.049  69.112  0.00  0.00     0.084 H 
ATOM     65  C32 non d ame     -12.695  14.347  72.496  0.00  0.00    -0.083 A 
ATOM     66  H50 non d ame     -13.305  12.819  71.094  0.00  0.00     0.083 H 
ATOM     67  C33 non d ame     -12.088  15.586  72.648  0.00  0.00    -0.082 A 
ATOM     68  H51 non d ame     -13.065  13.815  73.372  0.00  0.00     0.083 H 
ATOM     69  C34 non d ame     -11.607  16.278  71.537  0.00  0.00    -0.075 A 
ATOM     70  H52 non d ame     -11.988  16.019  73.644  0.00  0.00     0.083 H 
ATOM     71  H53 non d ame     -11.130  17.251  71.665  0.00  0.00     0.084 H 
ENDBRANCH  58  61
ENDBRANCH  57  58
ENDBRANCH  55  57
ENDBRANCH  52  55
ENDBRANCH  49  52
ENDBRANCH  47  49
BRANCH  47  72
ATOM     72  C24 non d ame     -11.650  12.220  67.272  0.00  0.00    -0.039 C 
ATOM     73  H35 non d ame     -12.224  11.381  67.665  0.00  0.00     0.036 H 
ATOM     74  H36 non d ame     -11.773  13.214  67.704  0.00  0.00     0.036 H 
BRANCH  72  75
ATOM     75  C25 non d ame     -11.993  12.337  65.712  0.00  0.00    -0.001 C 
ATOM     76  C26 non d ame     -10.621  12.162  64.821  0.00  0.00    -0.035 C 
ATOM     77  C27 non d ame     -10.529  13.197  63.954  0.00  0.00     0.085 C 
ATOM     78  H38 non d ame      -9.745  12.284  65.458  0.00  0.00     0.036 H 
ATOM     79  H39 non d ame     -10.706  11.290  64.172  0.00  0.00     0.036 H 
ATOM     80  N5  non d ame     -11.537  14.232  64.391  0.00  0.00    -0.049 N 
ATOM     81  H40 non d ame      -9.525  13.601  64.086  0.00  0.00     0.075 H 
ATOM     82  H41 non d ame     -10.832  12.794  62.987  0.00  0.00     0.075 H 
ATOM     83  C28 non d ame     -12.518  13.484  65.434  0.00  0.00     0.193 C 
ATOM     84  H42 non d ame     -11.020  14.942  64.890  0.00  0.00     0.280 HD
ATOM     85  H43 non d ame     -12.069  14.479  63.570  0.00  0.00     0.280 HD
ATOM     86  H44 non d ame     -13.518  13.176  65.129  0.00  0.00     0.129 H 
ATOM     87  H37 non d ame     -12.849  11.724  65.430  0.00  0.00     0.046 H 
BRANCH  83  88
ATOM     88  O6  non d ame     -12.704  14.289  66.599  0.00  0.00    -0.369 OA
ATOM     89  H45 non d ame     -12.497  13.773  67.380  0.00  0.00     0.212 HD
ENDBRANCH  83  88
ENDBRANCH  72  75
ENDBRANCH  47  72
ENDBRANCH  45  47
ENDBRANCH   1  43
BRANCH   1  90
ATOM     90  C16 non d ame      -9.248   8.174  69.634  0.00  0.00    -0.035 C 
ATOM     91  H21 non d ame      -8.402   7.487  69.666  0.00  0.00     0.037 H 
ATOM     92  H22 non d ame      -9.078   9.249  69.694  0.00  0.00     0.037 H 
BRANCH  90  93
ATOM     93  C17 non d ame     -10.163   7.803  70.843  0.00  0.00    -0.059 C 
ATOM     94  H23 non d ame      -9.521   7.659  71.712  0.00  0.00     0.038 H 
BRANCH  93  95
ATOM     95  C18 non d ame     -11.180   8.938  71.184  0.00  0.00    -0.073 C 
ATOM     96  H24 non d ame     -10.951   9.822  70.588  0.00  0.00     0.028 H 
ATOM     97  H25 non d ame     -12.192   8.600  70.957  0.00  0.00     0.028 H 
ATOM     98  H26 non d ame     -11.110   9.184  72.243  0.00  0.00     0.028 H 
ENDBRANCH  93  95
BRANCH  93  99
ATOM     99  C19 non d ame     -10.889   6.478  70.592  0.00  0.00    -0.073 C 
ATOM    100  H27 non d ame     -10.306   5.871  69.898  0.00  0.00     0.028 H 
ATOM    101  H28 non d ame     -11.005   5.943  71.534  0.00  0.00     0.028 H 
ATOM    102  H29 non d ame     -11.870   6.677  70.163  0.00  0.00     0.028 H 
ENDBRANCH  93  99
ENDBRANCH  90  93
ENDBRANCH   1  90
TORSDOF 26
ENDMDL
