MODEL 1
REMARK VINA RESULT:      -7.2      0.000      0.000
REMARK  26 active torsions:
REMARK  status: ('A' for Active; 'I' for Inactive)
REMARK    1  A    between atoms: C2_2  and  C3_3 
REMARK    2  A    between atoms: C4_6  and  C5_7 
REMARK       I    between atoms: C5_7  and  N2_9 
REMARK    3  A    between atoms: N2_9  and  C6_10 
REMARK    4  A    between atoms: C6_10  and  C7_11 
REMARK    5  A    between atoms: C6_10  and  C8_13 
REMARK       I    between atoms: C7_11  and  N3_14 
REMARK    6  A    between atoms: N3_14  and  C9_15 
REMARK    7  A    between atoms: C9_15  and  C10_16 
REMARK    8  A    between atoms: C9_15  and  C11_18 
REMARK       I    between atoms: C10_16  and  N4_21 
REMARK    9  A    between atoms: C11_18  and  C12_19 
REMARK   10  A    between atoms: C11_18  and  C13_20 
REMARK   11  A    between atoms: N4_21  and  C14_22 
REMARK   12  A    between atoms: C14_22  and  C15_23 
REMARK   13  A    between atoms: C14_22  and  C16_25 
REMARK       I    between atoms: C15_23  and  N6_40 
REMARK   14  A    between atoms: C16_25  and  C17_26 
REMARK   15  A    between atoms: C17_26  and  C18_27 
REMARK   16  A    between atoms: C17_26  and  C19_28 
REMARK   17  A    between atoms: C20_29  and  C21_30 
REMARK   18  A    between atoms: C20_29  and  C24_33 
REMARK   19  A    between atoms: C20_29  and  N6_40 
REMARK   20  A    between atoms: C21_30  and  C22_31 
REMARK   21  A    between atoms: C22_31  and  C23_32 
REMARK   22  A    between atoms: C23_32  and  O8_43 
REMARK   23  A    between atoms: C24_33  and  C25_34 
REMARK   24  A    between atoms: C28_38  and  O6_39 
REMARK   25  A    between atoms: C29_42  and  O8_43 
REMARK   26  A    between atoms: C29_42  and  C35_49 
ROOT
ATOM      1  C14 non d ame     -12.355  14.286  70.644  0.00  0.00     0.089 C 
ATOM      2  H20 non d ame     -13.443  14.303  70.719  0.00  0.00     0.087 H 
ENDROOT
BRANCH   1   3
ATOM      3  N4  non d ame     -11.956  12.914  70.370  0.00  0.00    -0.346 N 
ATOM      4  C10 non d ame     -12.601  11.770  71.111  0.00  0.00     0.241 C 
ATOM      5  O4  non d ame     -13.438  11.979  71.926  0.00  0.00    -0.271 OA
ATOM      6  H19 non d ame     -11.239  12.758  69.674  0.00  0.00     0.163 HD
BRANCH   4   7
ATOM      7  C9  non d ame     -12.179  10.356  70.810  0.00  0.00     0.092 C 
ATOM      8  H11 non d ame     -12.587  10.057  69.845  0.00  0.00     0.088 H 
BRANCH   7   9
ATOM      9  N3  non d ame     -10.718  10.294  70.701  0.00  0.00    -0.346 N 
ATOM     10  C7  non d ame     -10.106   9.787  69.498  0.00  0.00     0.240 C 
ATOM     11  O3  non d ame     -10.774   9.422  68.608  0.00  0.00    -0.271 OA
ATOM     12  H10 non d ame     -10.130  10.603  71.461  0.00  0.00     0.163 HD
BRANCH  10  13
ATOM     13  C6  non d ame      -8.551   9.720  69.389  0.00  0.00     0.086 C 
ATOM     14  H6  non d ame      -8.212   9.196  68.496  0.00  0.00     0.086 H 
BRANCH  13  15
ATOM     15  N2  non d ame      -8.027  11.073  69.301  0.00  0.00    -0.343 N 
ATOM     16  C5  non d ame      -6.906  11.355  68.402  0.00  0.00     0.273 C 
ATOM     17  O2  non d ame      -6.432  10.487  67.755  0.00  0.00    -0.266 OA
ATOM     18  H5  non d ame      -8.436  11.809  69.859  0.00  0.00     0.163 HD
BRANCH  16  19
ATOM     19  C4  non d ame      -6.343  12.781  68.297  0.00  0.00     0.154 A 
ATOM     20  C1  non d ame      -5.611  13.497  69.296  0.00  0.00    -0.017 A 
ATOM     21  C2  non d ame      -5.327  14.751  68.711  0.00  0.00     0.077 A 
ATOM     22  H1  non d ame      -5.329  13.159  70.294  0.00  0.00     0.091 H 
ATOM     23  O1  non d ame      -5.838  14.745  67.514  0.00  0.00    -0.218 OA
ATOM     24  N1  non d ame      -6.437  13.606  67.250  0.00  0.00    -0.123 NA
BRANCH  21  25
ATOM     25  C3  non d ame      -4.561  15.896  69.360  0.00  0.00    -0.029 C 
ATOM     26  H2  non d ame      -4.384  15.666  70.411  0.00  0.00     0.036 H 
ATOM     27  H3  non d ame      -3.606  16.028  68.851  0.00  0.00     0.036 H 
ATOM     28  H4  non d ame      -5.144  16.814  69.282  0.00  0.00     0.036 H 
ENDBRANCH  21  25
ENDBRANCH  16  19
ENDBRANCH  13  15
BRANCH  13  29
ATOM     29  C8  non d ame      -7.988   9.027  70.604  0.00  0.00    -0.049 C 
ATOM     30  H7  non d ame      -7.207   8.332  70.296  0.00  0.00     0.030 H 
ATOM     31  H8  non d ame      -7.567   9.770  71.283  0.00  0.00     0.030 H 
ATOM     32  H9  non d ame      -8.782   8.480  71.111  0.00  0.00     0.030 H 
ENDBRANCH  13  29
ENDBRANCH  10  13
ENDBRANCH   7   9
BRANCH   7  33
ATOM     33  C11 non d ame     -12.651   9.418  71.960  0.00  0.00    -0.033 C 
ATOM     34  H12 non d ame     -12.863  10.043  72.828  0.00  0.00     0.042 H 
BRANCH  33  35
ATOM     35  C12 non d ame     -13.971   8.676  71.583  0.00  0.00    -0.071 C 
ATOM     36  H13 non d ame     -13.871   7.616  71.815  0.00  0.00     0.028 H 
ATOM     37  H14 non d ame     -14.799   9.096  72.153  0.00  0.00     0.028 H 
ATOM     38  H15 non d ame     -14.164   8.799  70.517  0.00  0.00     0.028 H 
ENDBRANCH  33  35
BRANCH  33  39
ATOM     39  C13 non d ame     -11.526   8.408  72.354  0.00  0.00    -0.071 C 
ATOM     40  H16 non d ame     -11.583   8.199  73.422  0.00  0.00     0.028 H 
ATOM     41  H17 non d ame     -11.657   7.481  71.795  0.00  0.00     0.028 H 
ATOM     42  H18 non d ame     -10.553   8.840  72.120  0.00  0.00     0.028 H 
ENDBRANCH  33  39
ENDBRANCH   7  33
ENDBRANCH   4   7
ENDBRANCH   1   3
BRANCH   1  43
ATOM     43  C15 non d ame     -11.831  15.194  69.495  0.00  0.00     0.240 C 
ATOM     44  O5  non d ame     -12.346  16.247  69.292  0.00  0.00    -0.271 OA
ATOM     45  N6  non d ame     -10.682  14.756  68.653  0.00  0.00    -0.355 N 
ATOM     46  H46 non d ame     -10.234  13.866  68.819  0.00  0.00     0.162 HD
BRANCH  45  47
ATOM     47  C20 non d ame     -10.194  15.631  67.565  0.00  0.00     0.013 C 
ATOM     48  H30 non d ame     -11.001  16.314  67.298  0.00  0.00     0.072 H 
BRANCH  47  49
ATOM     49  C21 non d ame      -9.818  14.783  66.371  0.00  0.00    -0.038 C 
ATOM     50  H31 non d ame      -8.738  14.884  66.267  0.00  0.00     0.036 H 
ATOM     51  H32 non d ame     -10.260  13.803  66.557  0.00  0.00     0.036 H 
BRANCH  49  52
ATOM     52  C22 non d ame     -10.436  15.297  65.053  0.00  0.00     0.018 C 
ATOM     53  H33 non d ame     -10.543  16.375  65.177  0.00  0.00     0.048 H 
ATOM     54  H34 non d ame      -9.805  14.900  64.257  0.00  0.00     0.048 H 
BRANCH  52  55
ATOM     55  C23 non d ame     -11.866  14.754  64.779  0.00  0.00     0.259 C 
ATOM     56  O7  non d ame     -12.566  15.281  63.976  0.00  0.00    -0.265 OA
BRANCH  55  57
ATOM     57  O8  non d ame     -12.336  13.628  65.508  0.00  0.00    -0.317 OA
BRANCH  57  58
ATOM     58  C29 non d ame     -12.534  12.457  64.710  0.00  0.00     0.052 C 
ATOM     59  H47 non d ame     -13.211  11.822  65.280  0.00  0.00     0.082 H 
ATOM     60  H48 non d ame     -12.825  12.818  63.724  0.00  0.00     0.082 H 
BRANCH  58  61
ATOM     61  C35 non d ame     -11.169  11.729  64.582  0.00  0.00    -0.034 A 
ATOM     62  C30 non d ame     -10.583  11.564  63.332  0.00  0.00    -0.075 A 
ATOM     63  C31 non d ame      -9.357  10.910  63.216  0.00  0.00    -0.082 A 
ATOM     64  H49 non d ame     -11.083  11.946  62.443  0.00  0.00     0.084 H 
ATOM     65  C32 non d ame      -8.718  10.418  64.358  0.00  0.00    -0.083 A 
ATOM     66  H50 non d ame      -8.899  10.783  62.235  0.00  0.00     0.083 H 
ATOM     67  C33 non d ame      -9.309  10.582  65.604  0.00  0.00    -0.082 A 
ATOM     68  H51 non d ame      -7.760   9.905  64.277  0.00  0.00     0.083 H 
ATOM     69  C34 non d ame     -10.533  11.237  65.723  0.00  0.00    -0.075 A 
ATOM     70  H52 non d ame      -8.809  10.195  66.492  0.00  0.00     0.083 H 
ATOM     71  H53 non d ame     -10.990  11.364  66.706  0.00  0.00     0.084 H 
ENDBRANCH  58  61
ENDBRANCH  57  58
ENDBRANCH  55  57
ENDBRANCH  52  55
ENDBRANCH  49  52
ENDBRANCH  47  49
BRANCH  47  72
ATOM     72  C24 non d ame      -8.972  16.413  68.041  0.00  0.00    -0.039 C 
ATOM     73  H35 non d ame      -8.660  15.931  68.967  0.00  0.00     0.036 H 
ATOM     74  H36 non d ame      -8.295  16.442  67.187  0.00  0.00     0.036 H 
BRANCH  72  75
ATOM     75  C25 non d ame      -9.343  17.930  68.400  0.00  0.00    -0.001 C 
ATOM     76  C26 non d ame     -10.496  18.486  67.369  0.00  0.00    -0.035 C 
ATOM     77  C27 non d ame     -10.083  19.663  66.844  0.00  0.00     0.085 C 
ATOM     78  H38 non d ame     -10.567  17.831  66.500  0.00  0.00     0.036 H 
ATOM     79  H39 non d ame     -11.396  18.755  67.922  0.00  0.00     0.036 H 
ATOM     80  N5  non d ame      -8.616  19.802  67.171  0.00  0.00    -0.049 N 
ATOM     81  H40 non d ame     -10.198  19.559  65.765  0.00  0.00     0.075 H 
ATOM     82  H41 non d ame     -10.639  20.432  67.380  0.00  0.00     0.075 H 
ATOM     83  C28 non d ame      -8.308  18.698  68.310  0.00  0.00     0.193 C 
ATOM     84  H42 non d ame      -8.110  19.549  66.334  0.00  0.00     0.280 HD
ATOM     85  H43 non d ame      -8.497  20.720  67.574  0.00  0.00     0.280 HD
ATOM     86  H44 non d ame      -8.190  18.996  69.352  0.00  0.00     0.129 H 
ATOM     87  H37 non d ame      -9.523  18.069  69.466  0.00  0.00     0.046 H 
BRANCH  83  88
ATOM     88  O6  non d ame      -7.124  17.971  67.983  0.00  0.00    -0.369 OA
ATOM     89  H45 non d ame      -7.096  17.812  67.037  0.00  0.00     0.212 HD
ENDBRANCH  83  88
ENDBRANCH  72  75
ENDBRANCH  47  72
ENDBRANCH  45  47
ENDBRANCH   1  43
BRANCH   1  90
ATOM     90  C16 non d ame     -11.742  14.727  71.965  0.00  0.00    -0.035 C 
ATOM     91  H21 non d ame     -11.646  13.817  72.556  0.00  0.00     0.037 H 
ATOM     92  H22 non d ame     -10.854  15.297  71.694  0.00  0.00     0.037 H 
BRANCH  90  93
ATOM     93  C17 non d ame     -12.654  15.693  72.787  0.00  0.00    -0.059 C 
ATOM     94  H23 non d ame     -12.348  16.713  72.556  0.00  0.00     0.038 H 
BRANCH  93  95
ATOM     95  C18 non d ame     -14.161  15.549  72.405  0.00  0.00    -0.073 C 
ATOM     96  H24 non d ame     -14.754  16.250  72.994  0.00  0.00     0.028 H 
ATOM     97  H25 non d ame     -14.291  15.766  71.345  0.00  0.00     0.028 H 
ATOM     98  H26 non d ame     -14.493  14.531  72.610  0.00  0.00     0.028 H 
ENDBRANCH  93  95
BRANCH  93  99
ATOM     99  C19 non d ame     -12.450  15.488  74.290  0.00  0.00    -0.073 C 
ATOM    100  H27 non d ame     -11.613  14.809  74.454  0.00  0.00     0.028 H 
ATOM    101  H28 non d ame     -12.238  16.447  74.762  0.00  0.00     0.028 H 
ATOM    102  H29 non d ame     -13.353  15.061  74.724  0.00  0.00     0.028 H 
ENDBRANCH  93  99
ENDBRANCH  90  93
ENDBRANCH   1  90
TORSDOF 26
ENDMDL
MODEL 2
REMARK VINA RESULT:      -6.8      2.767      4.841
REMARK  26 active torsions:
REMARK  status: ('A' for Active; 'I' for Inactive)
REMARK    1  A    between atoms: C2_2  and  C3_3 
REMARK    2  A    between atoms: C4_6  and  C5_7 
REMARK       I    between atoms: C5_7  and  N2_9 
REMARK    3  A    between atoms: N2_9  and  C6_10 
REMARK    4  A    between atoms: C6_10  and  C7_11 
REMARK    5  A    between atoms: C6_10  and  C8_13 
REMARK       I    between atoms: C7_11  and  N3_14 
REMARK    6  A    between atoms: N3_14  and  C9_15 
REMARK    7  A    between atoms: C9_15  and  C10_16 
REMARK    8  A    between atoms: C9_15  and  C11_18 
REMARK       I    between atoms: C10_16  and  N4_21 
REMARK    9  A    between atoms: C11_18  and  C12_19 
REMARK   10  A    between atoms: C11_18  and  C13_20 
REMARK   11  A    between atoms: N4_21  and  C14_22 
REMARK   12  A    between atoms: C14_22  and  C15_23 
REMARK   13  A    between atoms: C14_22  and  C16_25 
REMARK       I    between atoms: C15_23  and  N6_40 
REMARK   14  A    between atoms: C16_25  and  C17_26 
REMARK   15  A    between atoms: C17_26  and  C18_27 
REMARK   16  A    between atoms: C17_26  and  C19_28 
REMARK   17  A    between atoms: C20_29  and  C21_30 
REMARK   18  A    between atoms: C20_29  and  C24_33 
REMARK   19  A    between atoms: C20_29  and  N6_40 
REMARK   20  A    between atoms: C21_30  and  C22_31 
REMARK   21  A    between atoms: C22_31  and  C23_32 
REMARK   22  A    between atoms: C23_32  and  O8_43 
REMARK   23  A    between atoms: C24_33  and  C25_34 
REMARK   24  A    between atoms: C28_38  and  O6_39 
REMARK   25  A    between atoms: C29_42  and  O8_43 
REMARK   26  A    between atoms: C29_42  and  C35_49 
ROOT
ATOM      1  C14 non d ame     -11.930  14.152  69.889  0.00  0.00     0.089 C 
ATOM      2  H20 non d ame     -12.945  13.771  69.782  0.00  0.00     0.087 H 
ENDROOT
BRANCH   1   3
ATOM      3  N4  non d ame     -11.017  13.042  69.658  0.00  0.00    -0.346 N 
ATOM      4  C10 non d ame     -11.554  11.661  69.380  0.00  0.00     0.241 C 
ATOM      5  O4  non d ame     -12.725  11.467  69.349  0.00  0.00    -0.271 OA
ATOM      6  H19 non d ame     -10.024  13.228  69.691  0.00  0.00     0.163 HD
BRANCH   4   7
ATOM      7  C9  non d ame     -10.596  10.524  69.138  0.00  0.00     0.092 C 
ATOM      8  H11 non d ame      -9.773  10.591  69.851  0.00  0.00     0.088 H 
BRANCH   7   9
ATOM      9  N3  non d ame     -11.277   9.250  69.383  0.00  0.00    -0.346 N 
ATOM     10  C7  non d ame     -11.113   8.574  70.646  0.00  0.00     0.240 C 
ATOM     11  O3  non d ame     -10.434   9.041  71.477  0.00  0.00    -0.271 OA
ATOM     12  H10 non d ame     -11.864   8.833  68.674  0.00  0.00     0.163 HD
BRANCH  10  13
ATOM     13  C6  non d ame     -11.838   7.216  70.898  0.00  0.00     0.086 C 
ATOM     14  H6  non d ame     -12.913   7.331  71.037  0.00  0.00     0.086 H 
BRANCH  13  15
ATOM     15  N2  non d ame     -11.658   6.363  69.735  0.00  0.00    -0.343 N 
ATOM     16  C5  non d ame     -10.304   6.065  69.262  0.00  0.00     0.273 C 
ATOM     17  O2  non d ame      -9.368   6.518  69.822  0.00  0.00    -0.266 OA
ATOM     18  H5  non d ame     -12.464   5.982  69.260  0.00  0.00     0.163 HD
BRANCH  16  19
ATOM     19  C4  non d ame     -10.099   5.163  68.035  0.00  0.00     0.154 A 
ATOM     20  C1  non d ame     -10.585   5.385  66.707  0.00  0.00    -0.017 A 
ATOM     21  C2  non d ame     -10.129   4.275  65.962  0.00  0.00     0.077 A 
ATOM     22  H1  non d ame     -11.179   6.223  66.341  0.00  0.00     0.091 H 
ATOM     23  O1  non d ame      -9.457   3.512  66.775  0.00  0.00    -0.218 OA
ATOM     24  N1  non d ame      -9.427   4.009  67.991  0.00  0.00    -0.123 NA
BRANCH  21  25
ATOM     25  C3  non d ame     -10.374   4.022  64.481  0.00  0.00    -0.029 C 
ATOM     26  H2  non d ame     -11.410   4.259  64.237  0.00  0.00     0.036 H 
ATOM     27  H3  non d ame      -9.709   4.651  63.890  0.00  0.00     0.036 H 
ATOM     28  H4  non d ame     -10.178   2.973  64.253  0.00  0.00     0.036 H 
ENDBRANCH  21  25
ENDBRANCH  16  19
ENDBRANCH  13  15
BRANCH  13  29
ATOM     29  C8  non d ame     -11.257   6.551  72.120  0.00  0.00    -0.049 C 
ATOM     30  H7  non d ame     -11.761   6.924  73.011  0.00  0.00     0.030 H 
ATOM     31  H8  non d ame     -11.398   5.472  72.047  0.00  0.00     0.030 H 
ATOM     32  H9  non d ame     -10.193   6.775  72.184  0.00  0.00     0.030 H 
ENDBRANCH  13  29
ENDBRANCH  10  13
ENDBRANCH   7   9
BRANCH   7  33
ATOM     33  C11 non d ame     -10.098  10.570  67.664  0.00  0.00    -0.033 C 
ATOM     34  H12 non d ame     -10.764  11.234  67.113  0.00  0.00     0.042 H 
BRANCH  33  35
ATOM     35  C12 non d ame      -8.658  11.163  67.568  0.00  0.00    -0.071 C 
ATOM     36  H13 non d ame      -8.577  11.776  66.670  0.00  0.00     0.028 H 
ATOM     37  H14 non d ame      -8.459  11.778  68.446  0.00  0.00     0.028 H 
ATOM     38  H15 non d ame      -7.933  10.351  67.522  0.00  0.00     0.028 H 
ENDBRANCH  33  35
BRANCH  33  39
ATOM     39  C13 non d ame     -10.173   9.155  67.005  0.00  0.00    -0.071 C 
ATOM     40  H16 non d ame     -10.718   9.221  66.064  0.00  0.00     0.028 H 
ATOM     41  H17 non d ame      -9.164   8.788  66.816  0.00  0.00     0.028 H 
ATOM     42  H18 non d ame     -10.689   8.470  67.677  0.00  0.00     0.028 H 
ENDBRANCH  33  39
ENDBRANCH   7  33
ENDBRANCH   4   7
ENDBRANCH   1   3
BRANCH   1  43
ATOM     43  C15 non d ame     -11.612  15.276  68.860  0.00  0.00     0.240 C 
ATOM     44  O5  non d ame     -12.040  16.372  69.031  0.00  0.00    -0.271 OA
ATOM     45  N6  non d ame     -10.768  14.988  67.666  0.00  0.00    -0.355 N 
ATOM     46  H46 non d ame     -10.395  14.062  67.512  0.00  0.00     0.162 HD
BRANCH  45  47
ATOM     47  C20 non d ame     -10.474  16.067  66.699  0.00  0.00     0.013 C 
ATOM     48  H30 non d ame     -11.169  16.885  66.888  0.00  0.00     0.072 H 
BRANCH  47  49
ATOM     49  C21 non d ame     -10.664  15.544  65.293  0.00  0.00    -0.038 C 
ATOM     50  H31 non d ame     -11.740  15.562  65.115  0.00  0.00     0.036 H 
ATOM     51  H32 non d ame      -9.997  16.137  64.666  0.00  0.00     0.036 H 
BRANCH  49  52
ATOM     52  C22 non d ame     -10.218  14.075  65.135  0.00  0.00     0.018 C 
ATOM     53  H33 non d ame      -9.337  14.100  64.492  0.00  0.00     0.048 H 
ATOM     54  H34 non d ame     -10.143  13.678  66.148  0.00  0.00     0.048 H 
BRANCH  52  55
ATOM     55  C23 non d ame     -11.256  13.181  64.400  0.00  0.00     0.259 C 
ATOM     56  O7  non d ame     -12.414  13.273  64.651  0.00  0.00    -0.265 OA
BRANCH  55  57
ATOM     57  O8  non d ame     -10.807  12.242  63.432  0.00  0.00    -0.317 OA
BRANCH  57  58
ATOM     58  C29 non d ame     -10.528  10.943  63.964  0.00  0.00     0.052 C 
ATOM     59  H47 non d ame     -10.261  11.103  65.008  0.00  0.00     0.082 H 
ATOM     60  H48 non d ame     -11.393  10.330  63.712  0.00  0.00     0.082 H 
BRANCH  58  61
ATOM     61  C35 non d ame      -9.290  10.376  63.221  0.00  0.00    -0.034 A 
ATOM     62  C30 non d ame      -8.746  11.069  62.144  0.00  0.00    -0.075 A 
ATOM     63  C31 non d ame      -7.634  10.560  61.476  0.00  0.00    -0.082 A 
ATOM     64  H49 non d ame      -9.191  12.011  61.825  0.00  0.00     0.084 H 
ATOM     65  C32 non d ame      -7.067   9.350  61.887  0.00  0.00    -0.083 A 
ATOM     66  H50 non d ame      -7.210  11.106  60.634  0.00  0.00     0.083 H 
ATOM     67  C33 non d ame      -7.615   8.660  62.959  0.00  0.00    -0.082 A 
ATOM     68  H51 non d ame      -6.198   8.944  61.370  0.00  0.00     0.083 H 
ATOM     69  C34 non d ame      -8.725   9.167  63.632  0.00  0.00    -0.075 A 
ATOM     70  H52 non d ame      -7.172   7.715  63.276  0.00  0.00     0.083 H 
ATOM     71  H53 non d ame      -9.150   8.619  64.474  0.00  0.00     0.084 H 
ENDBRANCH  58  61
ENDBRANCH  57  58
ENDBRANCH  55  57
ENDBRANCH  52  55
ENDBRANCH  49  52
ENDBRANCH  47  49
BRANCH  47  72
ATOM     72  C24 non d ame      -9.034  16.542  66.876  0.00  0.00    -0.039 C 
ATOM     73  H35 non d ame      -8.621  15.926  67.675  0.00  0.00     0.036 H 
ATOM     74  H36 non d ame      -8.592  16.509  65.880  0.00  0.00     0.036 H 
BRANCH  72  75
ATOM     75  C25 non d ame      -8.968  18.064  67.371  0.00  0.00    -0.001 C 
ATOM     76  C26 non d ame     -10.462  18.746  67.287  0.00  0.00    -0.035 C 
ATOM     77  C27 non d ame     -10.372  19.913  66.606  0.00  0.00     0.085 C 
ATOM     78  H38 non d ame     -11.116  18.137  66.663  0.00  0.00     0.036 H 
ATOM     79  H39 non d ame     -10.789  19.055  68.280  0.00  0.00     0.036 H 
ATOM     80  N5  non d ame      -9.018  19.930  65.937  0.00  0.00    -0.049 N 
ATOM     81  H40 non d ame     -11.146  19.865  65.840  0.00  0.00     0.075 H 
ATOM     82  H41 non d ame     -10.402  20.696  67.363  0.00  0.00     0.075 H 
ATOM     83  C28 non d ame      -8.159  18.758  66.642  0.00  0.00     0.193 C 
ATOM     84  H42 non d ame      -9.173  19.678  64.971  0.00  0.00     0.280 HD
ATOM     85  H43 non d ame      -8.597  20.819  66.165  0.00  0.00     0.280 HD
ATOM     86  H44 non d ame      -7.389  19.001  67.374  0.00  0.00     0.129 H 
ATOM     87  H37 non d ame      -8.427  18.169  68.312  0.00  0.00     0.046 H 
BRANCH  83  88
ATOM     88  O6  non d ame      -7.508  17.962  65.652  0.00  0.00    -0.369 OA
ATOM     89  H45 non d ame      -7.162  18.531  64.960  0.00  0.00     0.212 HD
ENDBRANCH  83  88
ENDBRANCH  72  75
ENDBRANCH  47  72
ENDBRANCH  45  47
ENDBRANCH   1  43
BRANCH   1  90
ATOM     90  C16 non d ame     -11.724  14.679  71.301  0.00  0.00    -0.035 C 
ATOM     91  H21 non d ame     -10.907  14.087  71.713  0.00  0.00     0.037 H 
ATOM     92  H22 non d ame     -11.613  15.758  71.193  0.00  0.00     0.037 H 
BRANCH  90  93
ATOM     93  C17 non d ame     -12.951  14.452  72.239  0.00  0.00    -0.059 C 
ATOM     94  H23 non d ame     -13.059  13.378  72.388  0.00  0.00     0.038 H 
BRANCH  93  95
ATOM     95  C18 non d ame     -12.753  15.111  73.640  0.00  0.00    -0.073 C 
ATOM     96  H24 non d ame     -13.463  15.931  73.760  0.00  0.00     0.028 H 
ATOM     97  H25 non d ame     -12.924  14.368  74.419  0.00  0.00     0.028 H 
ATOM     98  H26 non d ame     -11.737  15.495  73.722  0.00  0.00     0.028 H 
ENDBRANCH  93  95
BRANCH  93  99
ATOM     99  C19 non d ame     -14.242  14.949  71.580  0.00  0.00    -0.073 C 
ATOM    100  H27 non d ame     -14.341  14.499  70.592  0.00  0.00     0.028 H 
ATOM    101  H28 non d ame     -15.096  14.667  72.195  0.00  0.00     0.028 H 
ATOM    102  H29 non d ame     -14.205  16.033  71.483  0.00  0.00     0.028 H 
ENDBRANCH  93  99
ENDBRANCH  90  93
ENDBRANCH   1  90
TORSDOF 26
ENDMDL
MODEL 3
REMARK VINA RESULT:      -6.6      3.324      8.384
REMARK  26 active torsions:
REMARK  status: ('A' for Active; 'I' for Inactive)
REMARK    1  A    between atoms: C2_2  and  C3_3 
REMARK    2  A    between atoms: C4_6  and  C5_7 
REMARK       I    between atoms: C5_7  and  N2_9 
REMARK    3  A    between atoms: N2_9  and  C6_10 
REMARK    4  A    between atoms: C6_10  and  C7_11 
REMARK    5  A    between atoms: C6_10  and  C8_13 
REMARK       I    between atoms: C7_11  and  N3_14 
REMARK    6  A    between atoms: N3_14  and  C9_15 
REMARK    7  A    between atoms: C9_15  and  C10_16 
REMARK    8  A    between atoms: C9_15  and  C11_18 
REMARK       I    between atoms: C10_16  and  N4_21 
REMARK    9  A    between atoms: C11_18  and  C12_19 
REMARK   10  A    between atoms: C11_18  and  C13_20 
REMARK   11  A    between atoms: N4_21  and  C14_22 
REMARK   12  A    between atoms: C14_22  and  C15_23 
REMARK   13  A    between atoms: C14_22  and  C16_25 
REMARK       I    between atoms: C15_23  and  N6_40 
REMARK   14  A    between atoms: C16_25  and  C17_26 
REMARK   15  A    between atoms: C17_26  and  C18_27 
REMARK   16  A    between atoms: C17_26  and  C19_28 
REMARK   17  A    between atoms: C20_29  and  C21_30 
REMARK   18  A    between atoms: C20_29  and  C24_33 
REMARK   19  A    between atoms: C20_29  and  N6_40 
REMARK   20  A    between atoms: C21_30  and  C22_31 
REMARK   21  A    between atoms: C22_31  and  C23_32 
REMARK   22  A    between atoms: C23_32  and  O8_43 
REMARK   23  A    between atoms: C24_33  and  C25_34 
REMARK   24  A    between atoms: C28_38  and  O6_39 
REMARK   25  A    between atoms: C29_42  and  O8_43 
REMARK   26  A    between atoms: C29_42  and  C35_49 
ROOT
ATOM      1  C14 non d ame     -10.218  10.865  64.320  0.00  0.00     0.089 C 
ATOM      2  H20 non d ame     -11.233  10.495  64.468  0.00  0.00     0.087 H 
ENDROOT
BRANCH   1   3
ATOM      3  N4  non d ame      -9.612  11.021  65.633  0.00  0.00    -0.346 N 
ATOM      4  C10 non d ame     -10.475  11.081  66.869  0.00  0.00     0.241 C 
ATOM      5  O4  non d ame     -11.657  11.004  66.780  0.00  0.00    -0.271 OA
ATOM      6  H19 non d ame      -8.605  11.088  65.687  0.00  0.00     0.163 HD
BRANCH   4   7
ATOM      7  C9  non d ame      -9.831  11.237  68.221  0.00  0.00     0.092 C 
ATOM      8  H11 non d ame      -8.759  11.062  68.130  0.00  0.00     0.088 H 
BRANCH   7   9
ATOM      9  N3  non d ame     -10.005  12.616  68.689  0.00  0.00    -0.346 N 
ATOM     10  C7  non d ame      -9.300  13.693  68.041  0.00  0.00     0.240 C 
ATOM     11  O3  non d ame      -8.585  13.469  67.141  0.00  0.00    -0.271 OA
ATOM     12  H10 non d ame     -10.616  12.824  69.466  0.00  0.00     0.163 HD
BRANCH  10  13
ATOM     13  C6  non d ame      -9.487  15.157  68.547  0.00  0.00     0.086 C 
ATOM     14  H6  non d ame     -10.108  15.757  67.882  0.00  0.00     0.086 H 
BRANCH  13  15
ATOM     15  N2  non d ame     -10.164  15.127  69.833  0.00  0.00    -0.343 N 
ATOM     16  C5  non d ame     -11.478  15.759  69.971  0.00  0.00     0.273 C 
ATOM     17  O2  non d ame     -11.981  16.290  69.043  0.00  0.00    -0.266 OA
ATOM     18  H5  non d ame      -9.726  14.674  70.622  0.00  0.00     0.163 HD
BRANCH  16  19
ATOM     19  C4  non d ame     -12.206  15.734  71.324  0.00  0.00     0.154 A 
ATOM     20  C1  non d ame     -11.621  15.871  72.623  0.00  0.00    -0.017 A 
ATOM     21  C2  non d ame     -12.706  15.778  73.523  0.00  0.00     0.077 A 
ATOM     22  H1  non d ame     -10.569  16.015  72.875  0.00  0.00     0.091 H 
ATOM     23  O1  non d ame     -13.784  15.611  72.813  0.00  0.00    -0.218 OA
ATOM     24  N1  non d ame     -13.517  15.581  71.528  0.00  0.00    -0.123 NA
BRANCH  21  25
ATOM     25  C3  non d ame     -12.629  15.863  75.041  0.00  0.00    -0.029 C 
ATOM     26  H2  non d ame     -12.715  14.862  75.467  0.00  0.00     0.036 H 
ATOM     27  H3  non d ame     -11.674  16.300  75.332  0.00  0.00     0.036 H 
ATOM     28  H4  non d ame     -13.441  16.487  75.413  0.00  0.00     0.036 H 
ENDBRANCH  21  25
ENDBRANCH  16  19
ENDBRANCH  13  15
BRANCH  13  29
ATOM     29  C8  non d ame      -8.141  15.820  68.688  0.00  0.00    -0.049 C 
ATOM     30  H7  non d ame      -7.712  15.570  69.658  0.00  0.00     0.030 H 
ATOM     31  H8  non d ame      -7.478  15.467  67.896  0.00  0.00     0.030 H 
ATOM     32  H9  non d ame      -8.258  16.900  68.610  0.00  0.00     0.030 H 
ENDBRANCH  13  29
ENDBRANCH  10  13
ENDBRANCH   7   9
BRANCH   7  33
ATOM     33  C11 non d ame     -10.500  10.260  69.231  0.00  0.00    -0.033 C 
ATOM     34  H12 non d ame     -11.021   9.496  68.653  0.00  0.00     0.042 H 
BRANCH  33  35
ATOM     35  C12 non d ame      -9.434   9.536  70.111  0.00  0.00    -0.071 C 
ATOM     36  H13 non d ame      -8.967  10.256  70.782  0.00  0.00     0.028 H 
ATOM     37  H14 non d ame      -9.918   8.754  70.698  0.00  0.00     0.028 H 
ATOM     38  H15 non d ame      -8.675   9.090  69.469  0.00  0.00     0.028 H 
ENDBRANCH  33  35
BRANCH  33  39
ATOM     39  C13 non d ame     -11.554  11.002  70.113  0.00  0.00    -0.071 C 
ATOM     40  H16 non d ame     -11.862  11.921  69.614  0.00  0.00     0.028 H 
ATOM     41  H17 non d ame     -12.422  10.360  70.261  0.00  0.00     0.028 H 
ATOM     42  H18 non d ame     -11.112  11.244  71.079  0.00  0.00     0.028 H 
ENDBRANCH  33  39
ENDBRANCH   7  33
ENDBRANCH   4   7
ENDBRANCH   1   3
BRANCH   1  43
ATOM     43  C15 non d ame      -9.349   9.881  63.487  0.00  0.00     0.240 C 
ATOM     44  O5  non d ame      -9.080  10.140  62.357  0.00  0.00    -0.271 OA
ATOM     45  N6  non d ame      -8.843   8.619  64.098  0.00  0.00    -0.355 N 
ATOM     46  H46 non d ame      -9.061   8.391  65.058  0.00  0.00     0.162 HD
BRANCH  45  47
ATOM     47  C20 non d ame      -8.016   7.694  63.293  0.00  0.00     0.013 C 
ATOM     48  H30 non d ame      -8.590   7.414  62.410  0.00  0.00     0.072 H 
BRANCH  47  49
ATOM     49  C21 non d ame      -7.697   6.465  64.114  0.00  0.00    -0.038 C 
ATOM     50  H31 non d ame      -8.014   5.616  63.508  0.00  0.00     0.036 H 
ATOM     51  H32 non d ame      -6.650   6.568  64.403  0.00  0.00     0.036 H 
BRANCH  49  52
ATOM     52  C22 non d ame      -8.507   6.394  65.426  0.00  0.00     0.018 C 
ATOM     53  H33 non d ame      -8.406   7.375  65.890  0.00  0.00     0.048 H 
ATOM     54  H34 non d ame      -9.493   6.023  65.145  0.00  0.00     0.048 H 
BRANCH  52  55
ATOM     55  C23 non d ame      -7.942   5.375  66.455  0.00  0.00     0.259 C 
ATOM     56  O7  non d ame      -7.134   4.569  66.124  0.00  0.00    -0.265 OA
BRANCH  55  57
ATOM     57  O8  non d ame      -8.413   5.405  67.797  0.00  0.00    -0.317 OA
BRANCH  57  58
ATOM     58  C29 non d ame      -9.652   4.718  67.996  0.00  0.00     0.052 C 
ATOM     59  H47 non d ame     -10.296   5.026  67.173  0.00  0.00     0.082 H 
ATOM     60  H48 non d ame      -9.390   3.667  68.119  0.00  0.00     0.082 H 
BRANCH  58  61
ATOM     61  C35 non d ame     -10.274   5.228  69.324  0.00  0.00    -0.034 A 
ATOM     62  C30 non d ame     -11.228   6.239  69.303  0.00  0.00    -0.075 A 
ATOM     63  C31 non d ame     -11.787   6.697  70.495  0.00  0.00    -0.082 A 
ATOM     64  H49 non d ame     -11.539   6.673  68.353  0.00  0.00     0.084 H 
ATOM     65  C32 non d ame     -11.385   6.141  71.712  0.00  0.00    -0.083 A 
ATOM     66  H50 non d ame     -12.535   7.489  70.475  0.00  0.00     0.083 H 
ATOM     67  C33 non d ame     -10.429   5.134  71.729  0.00  0.00    -0.082 A 
ATOM     68  H51 non d ame     -11.816   6.493  72.649  0.00  0.00     0.083 H 
ATOM     69  C34 non d ame      -9.871   4.672  70.539  0.00  0.00    -0.075 A 
ATOM     70  H52 non d ame     -10.116   4.704  72.681  0.00  0.00     0.083 H 
ATOM     71  H53 non d ame      -9.121   3.879  70.561  0.00  0.00     0.084 H 
ENDBRANCH  58  61
ENDBRANCH  57  58
ENDBRANCH  55  57
ENDBRANCH  52  55
ENDBRANCH  49  52
ENDBRANCH  47  49
BRANCH  47  72
ATOM     72  C24 non d ame      -6.717   8.386  62.884  0.00  0.00    -0.039 C 
ATOM     73  H35 non d ame      -6.200   7.675  62.240  0.00  0.00     0.036 H 
ATOM     74  H36 non d ame      -7.017   9.358  62.492  0.00  0.00     0.036 H 
BRANCH  72  75
ATOM     75  C25 non d ame      -5.768   8.658  64.146  0.00  0.00    -0.001 C 
ATOM     76  C26 non d ame      -5.763  10.261  64.509  0.00  0.00    -0.035 C 
ATOM     77  C27 non d ame      -4.480  10.685  64.597  0.00  0.00     0.085 C 
ATOM     78  H38 non d ame      -6.164  10.834  63.673  0.00  0.00     0.036 H 
ATOM     79  H39 non d ame      -6.154  10.418  65.515  0.00  0.00     0.036 H 
ATOM     80  N5  non d ame      -3.614   9.598  64.009  0.00  0.00    -0.049 N 
ATOM     81  H40 non d ame      -4.421  11.570  63.963  0.00  0.00     0.075 H 
ATOM     82  H41 non d ame      -4.273  10.765  65.664  0.00  0.00     0.075 H 
ATOM     83  C28 non d ame      -4.554   8.289  63.905  0.00  0.00     0.193 C 
ATOM     84  H42 non d ame      -3.376   9.897  63.073  0.00  0.00     0.280 HD
ATOM     85  H43 non d ame      -2.884   9.417  64.682  0.00  0.00     0.280 HD
ATOM     86  H44 non d ame      -4.448   7.474  64.621  0.00  0.00     0.129 H 
ATOM     87  H37 non d ame      -5.961   7.964  64.965  0.00  0.00     0.046 H 
BRANCH  83  88
ATOM     88  O6  non d ame      -4.418   7.686  62.617  0.00  0.00    -0.369 OA
ATOM     89  H45 non d ame      -4.494   8.361  61.939  0.00  0.00     0.212 HD
ENDBRANCH  83  88
ENDBRANCH  72  75
ENDBRANCH  47  72
ENDBRANCH  45  47
ENDBRANCH   1  43
BRANCH   1  90
ATOM     90  C16 non d ame     -10.262  12.220  63.629  0.00  0.00    -0.035 C 
ATOM     91  H21 non d ame      -9.676  12.886  64.263  0.00  0.00     0.037 H 
ATOM     92  H22 non d ame      -9.948  12.030  62.603  0.00  0.00     0.037 H 
BRANCH  90  93
ATOM     93  C17 non d ame     -11.694  12.835  63.546  0.00  0.00    -0.059 C 
ATOM     94  H23 non d ame     -11.755  13.408  62.621  0.00  0.00     0.038 H 
BRANCH  93  95
ATOM     95  C18 non d ame     -12.806  11.740  63.503  0.00  0.00    -0.073 C 
ATOM     96  H24 non d ame     -13.714  12.160  63.069  0.00  0.00     0.028 H 
ATOM     97  H25 non d ame     -12.467  10.902  62.893  0.00  0.00     0.028 H 
ATOM     98  H26 non d ame     -13.014  11.391  64.514  0.00  0.00     0.028 H 
ENDBRANCH  93  95
BRANCH  93  99
ATOM     99  C19 non d ame     -11.936  13.812  64.700  0.00  0.00    -0.073 C 
ATOM    100  H27 non d ame     -12.619  13.361  65.420  0.00  0.00     0.028 H 
ATOM    101  H28 non d ame     -10.989  14.038  65.190  0.00  0.00     0.028 H 
ATOM    102  H29 non d ame     -12.373  14.731  64.312  0.00  0.00     0.028 H 
ENDBRANCH  93  99
ENDBRANCH  90  93
ENDBRANCH   1  90
TORSDOF 26
ENDMDL
MODEL 4
REMARK VINA RESULT:      -6.5      1.800      7.553
REMARK  26 active torsions:
REMARK  status: ('A' for Active; 'I' for Inactive)
REMARK    1  A    between atoms: C2_2  and  C3_3 
REMARK    2  A    between atoms: C4_6  and  C5_7 
REMARK       I    between atoms: C5_7  and  N2_9 
REMARK    3  A    between atoms: N2_9  and  C6_10 
REMARK    4  A    between atoms: C6_10  and  C7_11 
REMARK    5  A    between atoms: C6_10  and  C8_13 
REMARK       I    between atoms: C7_11  and  N3_14 
REMARK    6  A    between atoms: N3_14  and  C9_15 
REMARK    7  A    between atoms: C9_15  and  C10_16 
REMARK    8  A    between atoms: C9_15  and  C11_18 
REMARK       I    between atoms: C10_16  and  N4_21 
REMARK    9  A    between atoms: C11_18  and  C12_19 
REMARK   10  A    between atoms: C11_18  and  C13_20 
REMARK   11  A    between atoms: N4_21  and  C14_22 
REMARK   12  A    between atoms: C14_22  and  C15_23 
REMARK   13  A    between atoms: C14_22  and  C16_25 
REMARK       I    between atoms: C15_23  and  N6_40 
REMARK   14  A    between atoms: C16_25  and  C17_26 
REMARK   15  A    between atoms: C17_26  and  C18_27 
REMARK   16  A    between atoms: C17_26  and  C19_28 
REMARK   17  A    between atoms: C20_29  and  C21_30 
REMARK   18  A    between atoms: C20_29  and  C24_33 
REMARK   19  A    between atoms: C20_29  and  N6_40 
REMARK   20  A    between atoms: C21_30  and  C22_31 
REMARK   21  A    between atoms: C22_31  and  C23_32 
REMARK   22  A    between atoms: C23_32  and  O8_43 
REMARK   23  A    between atoms: C24_33  and  C25_34 
REMARK   24  A    between atoms: C28_38  and  O6_39 
REMARK   25  A    between atoms: C29_42  and  O8_43 
REMARK   26  A    between atoms: C29_42  and  C35_49 
ROOT
ATOM      1  C14 non d ame      -6.904  12.771  67.851  0.00  0.00     0.089 C 
ATOM      2  H20 non d ame      -5.989  12.636  67.274  0.00  0.00     0.087 H 
ENDROOT
BRANCH   1   3
ATOM      3  N4  non d ame      -7.200  14.195  67.878  0.00  0.00    -0.346 N 
ATOM      4  C10 non d ame      -6.107  15.205  67.636  0.00  0.00     0.241 C 
ATOM      5  O4  non d ame      -4.995  14.847  67.425  0.00  0.00    -0.271 OA
ATOM      6  H19 non d ame      -8.153  14.479  68.062  0.00  0.00     0.163 HD
BRANCH   4   7
ATOM      7  C9  non d ame      -6.432  16.675  67.662  0.00  0.00     0.092 C 
ATOM      8  H11 non d ame      -6.236  17.104  66.679  0.00  0.00     0.088 H 
BRANCH   7   9
ATOM      9  N3  non d ame      -7.862  16.855  67.934  0.00  0.00    -0.346 N 
ATOM     10  C7  non d ame      -8.722  17.426  66.927  0.00  0.00     0.240 C 
ATOM     11  O3  non d ame      -8.280  17.748  65.892  0.00  0.00    -0.271 OA
ATOM     12  H10 non d ame      -8.257  16.584  68.823  0.00  0.00     0.163 HD
BRANCH  10  13
ATOM     13  C6  non d ame     -10.241  17.618  67.224  0.00  0.00     0.086 C 
ATOM     14  H6  non d ame     -10.880  17.085  66.520  0.00  0.00     0.086 H 
BRANCH  13  15
ATOM     15  N2  non d ame     -10.535  17.079  68.542  0.00  0.00    -0.343 N 
ATOM     16  C5  non d ame     -11.459  15.949  68.669  0.00  0.00     0.273 C 
ATOM     17  O2  non d ame     -11.961  15.484  67.706  0.00  0.00    -0.266 OA
ATOM     18  H5  non d ame     -10.103  17.484  69.360  0.00  0.00     0.163 HD
BRANCH  16  19
ATOM     19  C4  non d ame     -11.777  15.368  70.055  0.00  0.00     0.154 A 
ATOM     20  C1  non d ame     -11.806  16.070  71.302  0.00  0.00    -0.017 A 
ATOM     21  C2  non d ame     -12.147  15.093  72.263  0.00  0.00     0.077 A 
ATOM     22  H1  non d ame     -11.610  17.128  71.482  0.00  0.00     0.091 H 
ATOM     23  O1  non d ame     -12.296  13.964  71.632  0.00  0.00    -0.218 OA
ATOM     24  N1  non d ame     -12.084  14.100  70.342  0.00  0.00    -0.123 NA
BRANCH  21  25
ATOM     25  C3  non d ame     -12.313  15.319  73.759  0.00  0.00    -0.029 C 
ATOM     26  H2  non d ame     -11.369  15.111  74.266  0.00  0.00     0.036 H 
ATOM     27  H3  non d ame     -12.601  16.354  73.940  0.00  0.00     0.036 H 
ATOM     28  H4  non d ame     -13.086  14.654  74.145  0.00  0.00     0.036 H 
ENDBRANCH  21  25
ENDBRANCH  16  19
ENDBRANCH  13  15
BRANCH  13  29
ATOM     29  C8  non d ame     -10.584  19.085  67.179  0.00  0.00    -0.049 C 
ATOM     30  H7  non d ame     -11.316  19.264  66.391  0.00  0.00     0.030 H 
ATOM     31  H8  non d ame     -11.003  19.390  68.140  0.00  0.00     0.030 H 
ATOM     32  H9  non d ame      -9.684  19.663  66.976  0.00  0.00     0.030 H 
ENDBRANCH  13  29
ENDBRANCH  10  13
ENDBRANCH   7   9
BRANCH   7  33
ATOM     33  C11 non d ame      -5.602  17.371  68.780  0.00  0.00    -0.033 C 
ATOM     34  H12 non d ame      -4.554  17.335  68.482  0.00  0.00     0.042 H 
BRANCH  33  35
ATOM     35  C12 non d ame      -5.995  18.874  68.928  0.00  0.00    -0.071 C 
ATOM     36  H13 non d ame      -6.671  19.154  68.119  0.00  0.00     0.028 H 
ATOM     37  H14 non d ame      -6.492  19.028  69.886  0.00  0.00     0.028 H 
ATOM     38  H15 non d ame      -5.098  19.490  68.882  0.00  0.00     0.028 H 
ENDBRANCH  33  35
BRANCH  33  39
ATOM     39  C13 non d ame      -5.746  16.612  70.138  0.00  0.00    -0.071 C 
ATOM     40  H16 non d ame      -5.973  17.324  70.930  0.00  0.00     0.028 H 
ATOM     41  H17 non d ame      -6.551  15.881  70.063  0.00  0.00     0.028 H 
ATOM     42  H18 non d ame      -4.811  16.100  70.367  0.00  0.00     0.028 H 
ENDBRANCH  33  39
ENDBRANCH   7  33
ENDBRANCH   4   7
ENDBRANCH   1   3
BRANCH   1  43
ATOM     43  C15 non d ame      -8.113  12.025  67.218  0.00  0.00     0.240 C 
ATOM     44  O5  non d ame      -7.966  11.407  66.212  0.00  0.00    -0.271 OA
ATOM     45  N6  non d ame      -9.453  12.073  67.868  0.00  0.00    -0.355 N 
ATOM     46  H46 non d ame      -9.590  12.591  68.724  0.00  0.00     0.162 HD
BRANCH  45  47
ATOM     47  C20 non d ame     -10.593  11.358  67.254  0.00  0.00     0.013 C 
ATOM     48  H30 non d ame     -10.255  10.944  66.304  0.00  0.00     0.072 H 
BRANCH  47  49
ATOM     49  C21 non d ame     -11.726  12.330  67.019  0.00  0.00    -0.038 C 
ATOM     50  H31 non d ame     -12.622  11.835  67.394  0.00  0.00     0.036 H 
ATOM     51  H32 non d ame     -11.400  13.274  67.459  0.00  0.00     0.036 H 
BRANCH  49  52
ATOM     52  C22 non d ame     -11.976  12.611  65.522  0.00  0.00     0.018 C 
ATOM     53  H33 non d ame     -12.097  11.633  65.054  0.00  0.00     0.048 H 
ATOM     54  H34 non d ame     -12.789  13.336  65.489  0.00  0.00     0.048 H 
BRANCH  52  55
ATOM     55  C23 non d ame     -10.773  13.282  64.802  0.00  0.00     0.259 C 
ATOM     56  O7  non d ame     -10.399  14.360  65.132  0.00  0.00    -0.265 OA
BRANCH  55  57
ATOM     57  O8  non d ame     -10.129  12.598  63.734  0.00  0.00    -0.317 OA
BRANCH  57  58
ATOM     58  C29 non d ame     -10.487  11.217  63.626  0.00  0.00     0.052 C 
ATOM     59  H47 non d ame     -10.658  10.875  64.646  0.00  0.00     0.082 H 
ATOM     60  H48 non d ame     -11.296  11.179  62.896  0.00  0.00     0.082 H 
BRANCH  58  61
ATOM     61  C35 non d ame      -9.268  10.450  63.048  0.00  0.00    -0.034 A 
ATOM     62  C30 non d ame      -8.906   9.216  63.578  0.00  0.00    -0.075 A 
ATOM     63  C31 non d ame      -7.811   8.528  63.059  0.00  0.00    -0.082 A 
ATOM     64  H49 non d ame      -9.481   8.789  64.399  0.00  0.00     0.084 H 
ATOM     65  C32 non d ame      -7.075   9.079  62.007  0.00  0.00    -0.083 A 
ATOM     66  H50 non d ame      -7.531   7.560  63.476  0.00  0.00     0.083 H 
ATOM     67  C33 non d ame      -7.437  10.313  61.483  0.00  0.00    -0.082 A 
ATOM     68  H51 non d ame      -6.217   8.547  61.596  0.00  0.00     0.083 H 
ATOM     69  C34 non d ame      -8.533  11.003  61.998  0.00  0.00    -0.075 A 
ATOM     70  H52 non d ame      -6.859  10.741  60.664  0.00  0.00     0.083 H 
ATOM     71  H53 non d ame      -8.812  11.972  61.580  0.00  0.00     0.084 H 
ENDBRANCH  58  61
ENDBRANCH  57  58
ENDBRANCH  55  57
ENDBRANCH  52  55
ENDBRANCH  49  52
ENDBRANCH  47  49
BRANCH  47  72
ATOM     72  C24 non d ame     -11.062  10.241  68.183  0.00  0.00    -0.039 C 
ATOM     73  H35 non d ame     -12.147  10.213  68.079  0.00  0.00     0.036 H 
ATOM     74  H36 non d ame     -10.467   9.369  67.914  0.00  0.00     0.036 H 
BRANCH  72  75
ATOM     75  C25 non d ame     -10.744  10.574  69.718  0.00  0.00    -0.001 C 
ATOM     76  C26 non d ame      -9.675   9.479  70.319  0.00  0.00    -0.035 C 
ATOM     77  C27 non d ame     -10.171   8.973  71.473  0.00  0.00     0.085 C 
ATOM     78  H38 non d ame      -9.621   8.611  69.663  0.00  0.00     0.036 H 
ATOM     79  H39 non d ame      -8.760   9.983  70.633  0.00  0.00     0.036 H 
ATOM     80  N5  non d ame     -11.623   9.378  71.546  0.00  0.00    -0.049 N 
ATOM     81  H40 non d ame     -10.109   7.889  71.367  0.00  0.00     0.075 H 
ATOM     82  H41 non d ame      -9.623   9.475  72.270  0.00  0.00     0.075 H 
ATOM     83  C28 non d ame     -11.817  10.536  70.436  0.00  0.00     0.193 C 
ATOM     84  H42 non d ame     -12.160   8.571  71.264  0.00  0.00     0.280 HD
ATOM     85  H43 non d ame     -11.762   9.783  72.460  0.00  0.00     0.280 HD
ATOM     86  H44 non d ame     -11.893  11.582  70.735  0.00  0.00     0.129 H 
ATOM     87  H37 non d ame     -10.514  11.628  69.872  0.00  0.00     0.046 H 
BRANCH  83  88
ATOM     88  O6  non d ame     -12.982  10.277  69.653  0.00  0.00    -0.369 OA
ATOM     89  H45 non d ame     -13.060  10.942  68.966  0.00  0.00     0.212 HD
ENDBRANCH  83  88
ENDBRANCH  72  75
ENDBRANCH  47  72
ENDBRANCH  45  47
ENDBRANCH   1  43
BRANCH   1  90
ATOM     90  C16 non d ame      -6.691  12.281  69.275  0.00  0.00    -0.035 C 
ATOM     91  H21 non d ame      -6.713  13.178  69.895  0.00  0.00     0.037 H 
ATOM     92  H22 non d ame      -7.432  11.497  69.425  0.00  0.00     0.037 H 
BRANCH  90  93
ATOM     93  C17 non d ame      -5.295  11.619  69.508  0.00  0.00    -0.059 C 
ATOM     94  H23 non d ame      -5.465  10.634  69.942  0.00  0.00     0.038 H 
BRANCH  93  95
ATOM     95  C18 non d ame      -4.506  11.423  68.175  0.00  0.00    -0.073 C 
ATOM     96  H24 non d ame      -3.548  10.947  68.387  0.00  0.00     0.028 H 
ATOM     97  H25 non d ame      -5.083  10.792  67.500  0.00  0.00     0.028 H 
ATOM     98  H26 non d ame      -4.334  12.393  67.707  0.00  0.00     0.028 H 
ENDBRANCH  93  95
BRANCH  93  99
ATOM     99  C19 non d ame      -4.471  12.424  70.517  0.00  0.00    -0.073 C 
ATOM    100  H27 non d ame      -4.296  11.819  71.406  0.00  0.00     0.028 H 
ATOM    101  H28 non d ame      -3.515  12.698  70.069  0.00  0.00     0.028 H 
ATOM    102  H29 non d ame      -5.015  13.326  70.793  0.00  0.00     0.028 H 
ENDBRANCH  93  99
ENDBRANCH  90  93
ENDBRANCH   1  90
TORSDOF 26
ENDMDL
MODEL 5
REMARK VINA RESULT:      -6.4      3.858      8.882
REMARK  26 active torsions:
REMARK  status: ('A' for Active; 'I' for Inactive)
REMARK    1  A    between atoms: C2_2  and  C3_3 
REMARK    2  A    between atoms: C4_6  and  C5_7 
REMARK       I    between atoms: C5_7  and  N2_9 
REMARK    3  A    between atoms: N2_9  and  C6_10 
REMARK    4  A    between atoms: C6_10  and  C7_11 
REMARK    5  A    between atoms: C6_10  and  C8_13 
REMARK       I    between atoms: C7_11  and  N3_14 
REMARK    6  A    between atoms: N3_14  and  C9_15 
REMARK    7  A    between atoms: C9_15  and  C10_16 
REMARK    8  A    between atoms: C9_15  and  C11_18 
REMARK       I    between atoms: C10_16  and  N4_21 
REMARK    9  A    between atoms: C11_18  and  C12_19 
REMARK   10  A    between atoms: C11_18  and  C13_20 
REMARK   11  A    between atoms: N4_21  and  C14_22 
REMARK   12  A    between atoms: C14_22  and  C15_23 
REMARK   13  A    between atoms: C14_22  and  C16_25 
REMARK       I    between atoms: C15_23  and  N6_40 
REMARK   14  A    between atoms: C16_25  and  C17_26 
REMARK   15  A    between atoms: C17_26  and  C18_27 
REMARK   16  A    between atoms: C17_26  and  C19_28 
REMARK   17  A    between atoms: C20_29  and  C21_30 
REMARK   18  A    between atoms: C20_29  and  C24_33 
REMARK   19  A    between atoms: C20_29  and  N6_40 
REMARK   20  A    between atoms: C21_30  and  C22_31 
REMARK   21  A    between atoms: C22_31  and  C23_32 
REMARK   22  A    between atoms: C23_32  and  O8_43 
REMARK   23  A    between atoms: C24_33  and  C25_34 
REMARK   24  A    between atoms: C28_38  and  O6_39 
REMARK   25  A    between atoms: C29_42  and  O8_43 
REMARK   26  A    between atoms: C29_42  and  C35_49 
ROOT
ATOM      1  C14 non d ame      -7.399   7.794  67.393  0.00  0.00     0.089 C 
ATOM      2  H20 non d ame      -7.492   6.991  66.663  0.00  0.00     0.087 H 
ENDROOT
BRANCH   1   3
ATOM      3  N4  non d ame      -7.989   8.989  66.809  0.00  0.00    -0.346 N 
ATOM      4  C10 non d ame      -9.394   8.956  66.263  0.00  0.00     0.241 C 
ATOM      5  O4  non d ame     -10.030   7.953  66.302  0.00  0.00    -0.271 OA
ATOM      6  H19 non d ame      -7.431   9.831  66.783  0.00  0.00     0.163 HD
BRANCH   4   7
ATOM      7  C9  non d ame      -9.992  10.203  65.667  0.00  0.00     0.092 C 
ATOM      8  H11 non d ame     -11.059  10.048  65.506  0.00  0.00     0.088 H 
BRANCH   7   9
ATOM      9  N3  non d ame      -9.854  11.312  66.615  0.00  0.00    -0.346 N 
ATOM     10  C7  non d ame     -10.943  11.646  67.499  0.00  0.00     0.240 C 
ATOM     11  O3  non d ame     -11.940  11.033  67.459  0.00  0.00    -0.271 OA
ATOM     12  H10 non d ame      -9.001  11.851  66.659  0.00  0.00     0.163 HD
BRANCH  10  13
ATOM     13  C6  non d ame     -10.791  12.830  68.503  0.00  0.00     0.086 C 
ATOM     14  H6  non d ame      -9.790  12.897  68.929  0.00  0.00     0.086 H 
BRANCH  13  15
ATOM     15  N2  non d ame     -11.026  14.079  67.797  0.00  0.00    -0.343 N 
ATOM     16  C5  non d ame      -9.901  14.978  67.528  0.00  0.00     0.273 C 
ATOM     17  O2  non d ame      -8.813  14.688  67.885  0.00  0.00    -0.266 OA
ATOM     18  H5  non d ame     -11.960  14.320  67.498  0.00  0.00     0.163 HD
BRANCH  16  19
ATOM     19  C4  non d ame     -10.135  16.301  66.781  0.00  0.00     0.154 A 
ATOM     20  C1  non d ame     -10.038  17.624  67.316  0.00  0.00    -0.017 A 
ATOM     21  C2  non d ame     -10.344  18.478  66.233  0.00  0.00     0.077 A 
ATOM     22  H1  non d ame      -9.786  17.921  68.335  0.00  0.00     0.091 H 
ATOM     23  O1  non d ame     -10.584  17.723  65.200  0.00  0.00    -0.218 OA
ATOM     24  N1  non d ame     -10.469  16.449  65.496  0.00  0.00    -0.123 NA
BRANCH  21  25
ATOM     25  C3  non d ame     -10.382  20.000  66.267  0.00  0.00    -0.029 C 
ATOM     26  H2  non d ame      -9.870  20.357  67.162  0.00  0.00     0.036 H 
ATOM     27  H3  non d ame      -9.884  20.395  65.382  0.00  0.00     0.036 H 
ATOM     28  H4  non d ame     -11.418  20.338  66.282  0.00  0.00     0.036 H 
ENDBRANCH  21  25
ENDBRANCH  16  19
ENDBRANCH  13  15
BRANCH  13  29
ATOM     29  C8  non d ame     -11.788  12.675  69.623  0.00  0.00    -0.049 C 
ATOM     30  H7  non d ame     -11.385  11.999  70.377  0.00  0.00     0.030 H 
ATOM     31  H8  non d ame     -11.982  13.650  70.074  0.00  0.00     0.030 H 
ATOM     32  H9  non d ame     -12.717  12.266  69.228  0.00  0.00     0.030 H 
ENDBRANCH  13  29
ENDBRANCH  10  13
ENDBRANCH   7   9
BRANCH   7  33
ATOM     33  C11 non d ame      -9.246  10.556  64.347  0.00  0.00    -0.033 C 
ATOM     34  H12 non d ame      -8.317  11.057  64.618  0.00  0.00     0.042 H 
BRANCH  33  35
ATOM     35  C12 non d ame      -8.870   9.271  63.545  0.00  0.00    -0.071 C 
ATOM     36  H13 non d ame      -9.685   8.550  63.612  0.00  0.00     0.028 H 
ATOM     37  H14 non d ame      -8.701   9.531  62.500  0.00  0.00     0.028 H 
ATOM     38  H15 non d ame      -7.962   8.836  63.963  0.00  0.00     0.028 H 
ENDBRANCH  33  35
BRANCH  33  39
ATOM     39  C13 non d ame     -10.089  11.541  63.475  0.00  0.00    -0.071 C 
ATOM     40  H16 non d ame     -10.895  11.960  64.077  0.00  0.00     0.028 H 
ATOM     41  H17 non d ame      -9.449  12.345  63.112  0.00  0.00     0.028 H 
ATOM     42  H18 non d ame     -10.512  11.003  62.627  0.00  0.00     0.028 H 
ENDBRANCH  33  39
ENDBRANCH   7  33
ENDBRANCH   4   7
ENDBRANCH   1   3
BRANCH   1  43
ATOM     43  C15 non d ame      -8.144   7.472  68.720  0.00  0.00     0.240 C 
ATOM     44  O5  non d ame      -7.938   8.131  69.689  0.00  0.00    -0.271 OA
ATOM     45  N6  non d ame      -9.120   6.348  68.783  0.00  0.00    -0.355 N 
ATOM     46  H46 non d ame      -9.306   5.784  67.966  0.00  0.00     0.162 HD
BRANCH  45  47
ATOM     47  C20 non d ame      -9.821   6.055  70.051  0.00  0.00     0.013 C 
ATOM     48  H30 non d ame      -9.291   6.568  70.854  0.00  0.00     0.072 H 
BRANCH  47  49
ATOM     49  C21 non d ame      -9.810   4.563  70.297  0.00  0.00    -0.038 C 
ATOM     50  H31 non d ame      -9.597   4.440  71.359  0.00  0.00     0.036 H 
ATOM     51  H32 non d ame     -10.747   4.190  69.881  0.00  0.00     0.036 H 
BRANCH  49  52
ATOM     52  C22 non d ame      -8.677   3.839  69.537  0.00  0.00     0.018 C 
ATOM     53  H33 non d ame      -7.954   4.613  69.276  0.00  0.00     0.048 H 
ATOM     54  H34 non d ame      -8.378   3.007  70.175  0.00  0.00     0.048 H 
BRANCH  52  55
ATOM     55  C23 non d ame      -9.131   3.207  68.192  0.00  0.00     0.259 C 
ATOM     56  O7  non d ame      -9.668   2.148  68.175  0.00  0.00    -0.265 OA
BRANCH  55  57
ATOM     57  O8  non d ame      -8.883   3.902  66.976  0.00  0.00    -0.317 OA
BRANCH  57  58
ATOM     58  C29 non d ame     -10.068   4.315  66.289  0.00  0.00     0.052 C 
ATOM     59  H47 non d ame     -10.802   3.530  66.466  0.00  0.00     0.082 H 
ATOM     60  H48 non d ame     -10.266   5.332  66.628  0.00  0.00     0.082 H 
BRANCH  58  61
ATOM     61  C35 non d ame      -9.751   4.358  64.770  0.00  0.00    -0.034 A 
ATOM     62  C30 non d ame     -10.503   3.599  63.880  0.00  0.00    -0.075 A 
ATOM     63  C31 non d ame     -10.218   3.636  62.516  0.00  0.00    -0.082 A 
ATOM     64  H49 non d ame     -11.316   2.975  64.251  0.00  0.00     0.084 H 
ATOM     65  C32 non d ame      -9.174   4.436  62.043  0.00  0.00    -0.083 A 
ATOM     66  H50 non d ame     -10.811   3.042  61.821  0.00  0.00     0.083 H 
ATOM     67  C33 non d ame      -8.423   5.189  62.936  0.00  0.00    -0.082 A 
ATOM     68  H51 non d ame      -8.944   4.471  60.979  0.00  0.00     0.083 H 
ATOM     69  C34 non d ame      -8.706   5.156  64.300  0.00  0.00    -0.075 A 
ATOM     70  H52 non d ame      -7.607   5.810  62.564  0.00  0.00     0.083 H 
ATOM     71  H53 non d ame      -8.112   5.752  64.995  0.00  0.00     0.084 H 
ENDBRANCH  58  61
ENDBRANCH  57  58
ENDBRANCH  55  57
ENDBRANCH  52  55
ENDBRANCH  49  52
ENDBRANCH  47  49
BRANCH  47  72
ATOM     72  C24 non d ame     -11.264   6.547  69.969  0.00  0.00    -0.039 C 
ATOM     73  H35 non d ame     -11.360   7.004  68.985  0.00  0.00     0.036 H 
ATOM     74  H36 non d ame     -11.880   5.687  70.233  0.00  0.00     0.036 H 
BRANCH  72  75
ATOM     75  C25 non d ame     -11.563   7.690  71.052  0.00  0.00    -0.001 C 
ATOM     76  C26 non d ame     -13.023   7.426  71.759  0.00  0.00    -0.035 C 
ATOM     77  C27 non d ame     -13.754   8.563  71.690  0.00  0.00     0.085 C 
ATOM     78  H38 non d ame     -13.601   6.715  71.168  0.00  0.00     0.036 H 
ATOM     79  H39 non d ame     -12.897   7.267  72.830  0.00  0.00     0.036 H 
ATOM     80  N5  non d ame     -13.055   9.479  70.715  0.00  0.00    -0.049 N 
ATOM     81  H40 non d ame     -14.717   8.267  71.272  0.00  0.00     0.075 H 
ATOM     82  H41 non d ame     -13.704   9.002  72.687  0.00  0.00     0.075 H 
ATOM     83  C28 non d ame     -11.579   8.860  70.504  0.00  0.00     0.193 C 
ATOM     84  H42 non d ame     -13.561   9.409  69.844  0.00  0.00     0.280 HD
ATOM     85  H43 non d ame     -12.965  10.373  71.176  0.00  0.00     0.280 HD
ATOM     86  H44 non d ame     -10.713   9.317  70.983  0.00  0.00     0.129 H 
ATOM     87  H37 non d ame     -10.715   7.863  71.714  0.00  0.00     0.046 H 
BRANCH  83  88
ATOM     88  O6  non d ame     -11.262   8.808  69.112  0.00  0.00    -0.369 OA
ATOM     89  H45 non d ame     -12.046   9.011  68.597  0.00  0.00     0.212 HD
ENDBRANCH  83  88
ENDBRANCH  72  75
ENDBRANCH  47  72
ENDBRANCH  45  47
ENDBRANCH   1  43
BRANCH   1  90
ATOM     90  C16 non d ame      -5.929   8.057  67.684  0.00  0.00    -0.035 C 
ATOM     91  H21 non d ame      -5.780   9.118  67.480  0.00  0.00     0.037 H 
ATOM     92  H22 non d ame      -5.758   7.666  68.686  0.00  0.00     0.037 H 
BRANCH  90  93
ATOM     93  C17 non d ame      -4.956   7.287  66.736  0.00  0.00    -0.059 C 
ATOM     94  H23 non d ame      -4.126   6.922  67.341  0.00  0.00     0.038 H 
BRANCH  93  95
ATOM     95  C18 non d ame      -5.638   6.051  66.068  0.00  0.00    -0.073 C 
ATOM     96  H24 non d ame      -6.567   5.821  66.591  0.00  0.00     0.028 H 
ATOM     97  H25 non d ame      -5.857   6.277  65.024  0.00  0.00     0.028 H 
ATOM     98  H26 non d ame      -4.969   5.193  66.121  0.00  0.00     0.028 H 
ENDBRANCH  93  95
BRANCH  93  99
ATOM     99  C19 non d ame      -4.368   8.224  65.677  0.00  0.00    -0.073 C 
ATOM    100  H27 non d ame      -3.284   8.116  65.659  0.00  0.00     0.028 H 
ATOM    101  H28 non d ame      -4.776   7.968  64.699  0.00  0.00     0.028 H 
ATOM    102  H29 non d ame      -4.626   9.254  65.921  0.00  0.00     0.028 H 
ENDBRANCH  93  99
ENDBRANCH  90  93
ENDBRANCH   1  90
TORSDOF 26
ENDMDL
MODEL 6
REMARK VINA RESULT:      -6.4      2.864      6.810
REMARK  26 active torsions:
REMARK  status: ('A' for Active; 'I' for Inactive)
REMARK    1  A    between atoms: C2_2  and  C3_3 
REMARK    2  A    between atoms: C4_6  and  C5_7 
REMARK       I    between atoms: C5_7  and  N2_9 
REMARK    3  A    between atoms: N2_9  and  C6_10 
REMARK    4  A    between atoms: C6_10  and  C7_11 
REMARK    5  A    between atoms: C6_10  and  C8_13 
REMARK       I    between atoms: C7_11  and  N3_14 
REMARK    6  A    between atoms: N3_14  and  C9_15 
REMARK    7  A    between atoms: C9_15  and  C10_16 
REMARK    8  A    between atoms: C9_15  and  C11_18 
REMARK       I    between atoms: C10_16  and  N4_21 
REMARK    9  A    between atoms: C11_18  and  C12_19 
REMARK   10  A    between atoms: C11_18  and  C13_20 
REMARK   11  A    between atoms: N4_21  and  C14_22 
REMARK   12  A    between atoms: C14_22  and  C15_23 
REMARK   13  A    between atoms: C14_22  and  C16_25 
REMARK       I    between atoms: C15_23  and  N6_40 
REMARK   14  A    between atoms: C16_25  and  C17_26 
REMARK   15  A    between atoms: C17_26  and  C18_27 
REMARK   16  A    between atoms: C17_26  and  C19_28 
REMARK   17  A    between atoms: C20_29  and  C21_30 
REMARK   18  A    between atoms: C20_29  and  C24_33 
REMARK   19  A    between atoms: C20_29  and  N6_40 
REMARK   20  A    between atoms: C21_30  and  C22_31 
REMARK   21  A    between atoms: C22_31  and  C23_32 
REMARK   22  A    between atoms: C23_32  and  O8_43 
REMARK   23  A    between atoms: C24_33  and  C25_34 
REMARK   24  A    between atoms: C28_38  and  O6_39 
REMARK   25  A    between atoms: C29_42  and  O8_43 
REMARK   26  A    between atoms: C29_42  and  C35_49 
ROOT
ATOM      1  C14 non d ame      -9.908  11.967  65.358  0.00  0.00     0.089 C 
ATOM      2  H20 non d ame      -9.896  12.222  64.299  0.00  0.00     0.087 H 
ENDROOT
BRANCH   1   3
ATOM      3  N4  non d ame      -9.157  10.731  65.521  0.00  0.00    -0.346 N 
ATOM      4  C10 non d ame      -9.033   9.758  64.375  0.00  0.00     0.241 C 
ATOM      5  O4  non d ame      -9.549   9.991  63.332  0.00  0.00    -0.271 OA
ATOM      6  H19 non d ame      -8.728  10.551  66.418  0.00  0.00     0.163 HD
BRANCH   4   7
ATOM      7  C9  non d ame      -8.247   8.487  64.559  0.00  0.00     0.092 C 
ATOM      8  H11 non d ame      -7.376   8.691  65.182  0.00  0.00     0.088 H 
BRANCH   7   9
ATOM      9  N3  non d ame      -9.067   7.504  65.273  0.00  0.00    -0.346 N 
ATOM     10  C7  non d ame      -8.822   7.235  66.668  0.00  0.00     0.240 C 
ATOM     11  O3  non d ame      -7.965   7.800  67.232  0.00  0.00    -0.271 OA
ATOM     12  H10 non d ame      -9.808   7.008  64.798  0.00  0.00     0.163 HD
BRANCH  10  13
ATOM     13  C6  non d ame      -9.696   6.185  67.420  0.00  0.00     0.086 C 
ATOM     14  H6  non d ame      -9.278   5.179  67.378  0.00  0.00     0.086 H 
BRANCH  13  15
ATOM     15  N2  non d ame      -9.764   6.549  68.825  0.00  0.00    -0.343 N 
ATOM     16  C5  non d ame      -9.915   5.499  69.836  0.00  0.00     0.273 C 
ATOM     17  O2  non d ame      -9.982   4.366  69.507  0.00  0.00    -0.266 OA
ATOM     18  H5  non d ame      -9.708   7.519  69.098  0.00  0.00     0.163 HD
BRANCH  16  19
ATOM     19  C4  non d ame      -9.986   5.869  71.326  0.00  0.00     0.154 A 
ATOM     20  C1  non d ame      -8.903   6.279  72.167  0.00  0.00    -0.017 A 
ATOM     21  C2  non d ame      -9.490   6.499  73.433  0.00  0.00     0.077 A 
ATOM     22  H1  non d ame      -7.853   6.398  71.901  0.00  0.00     0.091 H 
ATOM     23  O1  non d ame     -10.762   6.244  73.321  0.00  0.00    -0.218 OA
ATOM     24  N1  non d ame     -11.074   5.874  72.100  0.00  0.00    -0.123 NA
BRANCH  21  25
ATOM     25  C3  non d ame      -8.768   6.952  74.695  0.00  0.00    -0.029 C 
ATOM     26  H2  non d ame      -7.696   6.790  74.579  0.00  0.00     0.036 H 
ATOM     27  H3  non d ame      -8.959   8.013  74.860  0.00  0.00     0.036 H 
ATOM     28  H4  non d ame      -9.133   6.381  75.549  0.00  0.00     0.036 H 
ENDBRANCH  21  25
ENDBRANCH  16  19
ENDBRANCH  13  15
BRANCH  13  29
ATOM     29  C8  non d ame     -11.081   6.161  66.826  0.00  0.00    -0.049 C 
ATOM     30  H7  non d ame     -11.495   7.170  66.827  0.00  0.00     0.030 H 
ATOM     31  H8  non d ame     -11.030   5.791  65.801  0.00  0.00     0.030 H 
ATOM     32  H9  non d ame     -11.720   5.506  67.417  0.00  0.00     0.030 H 
ENDBRANCH  13  29
ENDBRANCH  10  13
ENDBRANCH   7   9
BRANCH   7  33
ATOM     33  C11 non d ame      -7.850   7.916  63.167  0.00  0.00    -0.033 C 
ATOM     34  H12 non d ame      -8.557   8.311  62.436  0.00  0.00     0.042 H 
BRANCH  33  35
ATOM     35  C12 non d ame      -6.425   8.389  62.743  0.00  0.00    -0.071 C 
ATOM     36  H13 non d ame      -6.506   9.085  61.908  0.00  0.00     0.028 H 
ATOM     37  H14 non d ame      -5.942   8.886  63.584  0.00  0.00     0.028 H 
ATOM     38  H15 non d ame      -5.831   7.526  62.442  0.00  0.00     0.028 H 
ENDBRANCH  33  35
BRANCH  33  39
ATOM     39  C13 non d ame      -7.958   6.357  63.151  0.00  0.00    -0.071 C 
ATOM     40  H16 non d ame      -7.087   5.928  63.644  0.00  0.00     0.028 H 
ATOM     41  H17 non d ame      -8.863   6.050  63.675  0.00  0.00     0.028 H 
ATOM     42  H18 non d ame      -8.000   6.008  62.119  0.00  0.00     0.028 H 
ENDBRANCH  33  39
ENDBRANCH   7  33
ENDBRANCH   4   7
ENDBRANCH   1   3
BRANCH   1  43
ATOM     43  C15 non d ame      -9.247  13.068  66.235  0.00  0.00     0.240 C 
ATOM     44  O5  non d ame      -8.421  12.768  67.037  0.00  0.00    -0.271 OA
ATOM     45  N6  non d ame      -9.635  14.497  66.071  0.00  0.00    -0.355 N 
ATOM     46  H46 non d ame     -10.332  14.765  65.390  0.00  0.00     0.162 HD
BRANCH  45  47
ATOM     47  C20 non d ame      -8.996  15.532  66.912  0.00  0.00     0.013 C 
ATOM     48  H30 non d ame      -7.950  15.256  67.045  0.00  0.00     0.072 H 
BRANCH  47  49
ATOM     49  C21 non d ame      -9.691  15.587  68.253  0.00  0.00    -0.038 C 
ATOM     50  H31 non d ame      -9.332  14.719  68.807  0.00  0.00     0.036 H 
ATOM     51  H32 non d ame      -9.511  16.592  68.637  0.00  0.00     0.036 H 
BRANCH  49  52
ATOM     52  C22 non d ame     -11.223  15.432  68.141  0.00  0.00     0.018 C 
ATOM     53  H33 non d ame     -11.589  16.380  67.746  0.00  0.00     0.048 H 
ATOM     54  H34 non d ame     -11.387  14.509  67.584  0.00  0.00     0.048 H 
BRANCH  52  55
ATOM     55  C23 non d ame     -11.934  15.238  69.510  0.00  0.00     0.259 C 
ATOM     56  O7  non d ame     -12.103  16.162  70.237  0.00  0.00    -0.265 OA
BRANCH  55  57
ATOM     57  O8  non d ame     -12.369  13.939  69.892  0.00  0.00    -0.317 OA
BRANCH  57  58
ATOM     58  C29 non d ame     -11.685  12.874  69.223  0.00  0.00     0.052 C 
ATOM     59  H47 non d ame     -12.205  12.739  68.276  0.00  0.00     0.082 H 
ATOM     60  H48 non d ame     -10.631  13.151  69.231  0.00  0.00     0.082 H 
BRANCH  58  61
ATOM     61  C35 non d ame     -11.861  11.586  70.070  0.00  0.00    -0.034 A 
ATOM     62  C30 non d ame     -12.828  11.535  71.068  0.00  0.00    -0.075 A 
ATOM     63  C31 non d ame     -12.986  10.377  71.828  0.00  0.00    -0.082 A 
ATOM     64  H49 non d ame     -13.462  12.401  71.254  0.00  0.00     0.084 H 
ATOM     65  C32 non d ame     -12.170   9.268  71.589  0.00  0.00    -0.083 A 
ATOM     66  H50 non d ame     -13.746  10.340  72.608  0.00  0.00     0.083 H 
ATOM     67  C33 non d ame     -11.203   9.325  70.594  0.00  0.00    -0.082 A 
ATOM     68  H51 non d ame     -12.287   8.359  72.179  0.00  0.00     0.083 H 
ATOM     69  C34 non d ame     -11.044  10.479  69.830  0.00  0.00    -0.075 A 
ATOM     70  H52 non d ame     -10.567   8.459  70.412  0.00  0.00     0.083 H 
ATOM     71  H53 non d ame     -10.283  10.515  69.049  0.00  0.00     0.084 H 
ENDBRANCH  58  61
ENDBRANCH  57  58
ENDBRANCH  55  57
ENDBRANCH  52  55
ENDBRANCH  49  52
ENDBRANCH  47  49
BRANCH  47  72
ATOM     72  C24 non d ame      -9.103  16.892  66.226  0.00  0.00    -0.039 C 
ATOM     73  H35 non d ame      -8.333  16.890  65.455  0.00  0.00     0.036 H 
ATOM     74  H36 non d ame     -10.152  16.996  65.948  0.00  0.00     0.036 H 
BRANCH  72  75
ATOM     75  C25 non d ame      -8.760  18.091  67.232  0.00  0.00    -0.001 C 
ATOM     76  C26 non d ame     -10.102  19.004  67.495  0.00  0.00    -0.035 C 
ATOM     77  C27 non d ame      -9.796  20.305  67.276  0.00  0.00     0.085 C 
ATOM     78  H38 non d ame     -10.854  18.789  66.736  0.00  0.00     0.036 H 
ATOM     79  H39 non d ame     -10.371  18.979  68.551  0.00  0.00     0.036 H 
ATOM     80  N5  non d ame      -8.460  20.332  66.574  0.00  0.00    -0.049 N 
ATOM     81  H40 non d ame     -10.563  20.675  66.595  0.00  0.00     0.075 H 
ATOM     82  H41 non d ame      -9.685  20.748  68.266  0.00  0.00     0.075 H 
ATOM     83  C28 non d ame      -7.834  18.854  66.753  0.00  0.00     0.193 C 
ATOM     84  H42 non d ame      -8.654  20.482  65.594  0.00  0.00     0.280 HD
ATOM     85  H43 non d ame      -7.883  20.988  67.080  0.00  0.00     0.280 HD
ATOM     86  H44 non d ame      -7.036  18.674  67.473  0.00  0.00     0.129 H 
ATOM     87  H37 non d ame      -8.213  17.749  68.111  0.00  0.00     0.046 H 
BRANCH  83  88
ATOM     88  O6  non d ame      -7.336  18.376  65.502  0.00  0.00    -0.369 OA
ATOM     89  H45 non d ame      -6.964  19.108  65.005  0.00  0.00     0.212 HD
ENDBRANCH  83  88
ENDBRANCH  72  75
ENDBRANCH  47  72
ENDBRANCH  45  47
ENDBRANCH   1  43
BRANCH   1  90
ATOM     90  C16 non d ame     -11.341  11.741  65.816  0.00  0.00    -0.035 C 
ATOM     91  H21 non d ame     -11.502  10.665  65.739  0.00  0.00     0.037 H 
ATOM     92  H22 non d ame     -11.415  12.234  66.784  0.00  0.00     0.037 H 
BRANCH  90  93
ATOM     93  C17 non d ame     -12.407  12.413  64.894  0.00  0.00    -0.059 C 
ATOM     94  H23 non d ame     -13.273  11.753  64.854  0.00  0.00     0.038 H 
BRANCH  93  95
ATOM     95  C18 non d ame     -12.884  13.792  65.450  0.00  0.00    -0.073 C 
ATOM     96  H24 non d ame     -13.057  13.710  66.524  0.00  0.00     0.028 H 
ATOM     97  H25 non d ame     -12.117  14.544  65.263  0.00  0.00     0.028 H 
ATOM     98  H26 non d ame     -13.808  14.085  64.953  0.00  0.00     0.028 H 
ENDBRANCH  93  95
BRANCH  93  99
ATOM     99  C19 non d ame     -11.879  12.555  63.463  0.00  0.00    -0.073 C 
ATOM    100  H27 non d ame     -12.661  12.971  62.828  0.00  0.00     0.028 H 
ATOM    101  H28 non d ame     -11.015  13.221  63.459  0.00  0.00     0.028 H 
ATOM    102  H29 non d ame     -11.586  11.577  63.086  0.00  0.00     0.028 H 
ENDBRANCH  93  99
ENDBRANCH  90  93
ENDBRANCH   1  90
TORSDOF 26
ENDMDL
MODEL 7
REMARK VINA RESULT:      -6.4      2.394      7.893
REMARK  26 active torsions:
REMARK  status: ('A' for Active; 'I' for Inactive)
REMARK    1  A    between atoms: C2_2  and  C3_3 
REMARK    2  A    between atoms: C4_6  and  C5_7 
REMARK       I    between atoms: C5_7  and  N2_9 
REMARK    3  A    between atoms: N2_9  and  C6_10 
REMARK    4  A    between atoms: C6_10  and  C7_11 
REMARK    5  A    between atoms: C6_10  and  C8_13 
REMARK       I    between atoms: C7_11  and  N3_14 
REMARK    6  A    between atoms: N3_14  and  C9_15 
REMARK    7  A    between atoms: C9_15  and  C10_16 
REMARK    8  A    between atoms: C9_15  and  C11_18 
REMARK       I    between atoms: C10_16  and  N4_21 
REMARK    9  A    between atoms: C11_18  and  C12_19 
REMARK   10  A    between atoms: C11_18  and  C13_20 
REMARK   11  A    between atoms: N4_21  and  C14_22 
REMARK   12  A    between atoms: C14_22  and  C15_23 
REMARK   13  A    between atoms: C14_22  and  C16_25 
REMARK       I    between atoms: C15_23  and  N6_40 
REMARK   14  A    between atoms: C16_25  and  C17_26 
REMARK   15  A    between atoms: C17_26  and  C18_27 
REMARK   16  A    between atoms: C17_26  and  C19_28 
REMARK   17  A    between atoms: C20_29  and  C21_30 
REMARK   18  A    between atoms: C20_29  and  C24_33 
REMARK   19  A    between atoms: C20_29  and  N6_40 
REMARK   20  A    between atoms: C21_30  and  C22_31 
REMARK   21  A    between atoms: C22_31  and  C23_32 
REMARK   22  A    between atoms: C23_32  and  O8_43 
REMARK   23  A    between atoms: C24_33  and  C25_34 
REMARK   24  A    between atoms: C28_38  and  O6_39 
REMARK   25  A    between atoms: C29_42  and  O8_43 
REMARK   26  A    between atoms: C29_42  and  C35_49 
ROOT
ATOM      1  C14 non d ame      -6.745  15.503  68.098  0.00  0.00     0.089 C 
ATOM      2  H20 non d ame      -6.034  16.128  67.558  0.00  0.00     0.087 H 
ENDROOT
BRANCH   1   3
ATOM      3  N4  non d ame      -8.064  15.751  67.537  0.00  0.00    -0.346 N 
ATOM      4  C10 non d ame      -8.357  17.049  66.826  0.00  0.00     0.241 C 
ATOM      5  O4  non d ame      -7.516  17.880  66.722  0.00  0.00    -0.271 OA
ATOM      6  H19 non d ame      -8.767  15.033  67.638  0.00  0.00     0.163 HD
BRANCH   4   7
ATOM      7  C9  non d ame      -9.726  17.288  66.246  0.00  0.00     0.092 C 
ATOM      8  H11 non d ame      -9.625  17.784  65.281  0.00  0.00     0.088 H 
BRANCH   7   9
ATOM      9  N3  non d ame     -10.385  16.001  66.003  0.00  0.00    -0.346 N 
ATOM     10  C7  non d ame     -11.157  15.801  64.801  0.00  0.00     0.240 C 
ATOM     11  O3  non d ame     -11.259  16.666  64.019  0.00  0.00    -0.271 OA
ATOM     12  H10 non d ame     -10.308  15.246  66.670  0.00  0.00     0.163 HD
BRANCH  10  13
ATOM     13  C6  non d ame     -11.858  14.430  64.550  0.00  0.00     0.086 C 
ATOM     14  H6  non d ame     -12.483  14.433  63.657  0.00  0.00     0.086 H 
BRANCH  13  15
ATOM     15  N2  non d ame     -10.842  13.412  64.344  0.00  0.00    -0.343 N 
ATOM     16  C5  non d ame     -11.193  12.176  63.640  0.00  0.00     0.273 C 
ATOM     17  O2  non d ame     -12.296  12.010  63.248  0.00  0.00    -0.266 OA
ATOM     18  H5  non d ame      -9.904  13.560  64.684  0.00  0.00     0.163 HD
BRANCH  16  19
ATOM     19  C4  non d ame     -10.129  11.091  63.412  0.00  0.00     0.154 A 
ATOM     20  C1  non d ame      -9.714  10.079  64.336  0.00  0.00    -0.017 A 
ATOM     21  C2  non d ame      -8.722   9.345  63.649  0.00  0.00     0.077 A 
ATOM     22  H1  non d ame     -10.077   9.905  65.349  0.00  0.00     0.091 H 
ATOM     23  O1  non d ame      -8.591   9.879  62.469  0.00  0.00    -0.218 OA
ATOM     24  N1  non d ame      -9.401  10.900  62.309  0.00  0.00    -0.123 NA
BRANCH  21  25
ATOM     25  C3  non d ame      -7.951   8.148  64.188  0.00  0.00    -0.029 C 
ATOM     26  H2  non d ame      -8.653   7.388  64.535  0.00  0.00     0.036 H 
ATOM     27  H3  non d ame      -7.326   7.732  63.398  0.00  0.00     0.036 H 
ATOM     28  H4  non d ame      -7.320   8.465  65.020  0.00  0.00     0.036 H 
ENDBRANCH  21  25
ENDBRANCH  16  19
ENDBRANCH  13  15
BRANCH  13  29
ATOM     29  C8  non d ame     -12.711  14.073  65.741  0.00  0.00    -0.049 C 
ATOM     30  H7  non d ame     -12.565  14.812  66.529  0.00  0.00     0.030 H 
ATOM     31  H8  non d ame     -13.761  14.061  65.445  0.00  0.00     0.030 H 
ATOM     32  H9  non d ame     -12.427  13.089  66.110  0.00  0.00     0.030 H 
ENDBRANCH  13  29
ENDBRANCH  10  13
ENDBRANCH   7   9
BRANCH   7  33
ATOM     33  C11 non d ame     -10.577  18.123  67.248  0.00  0.00    -0.033 C 
ATOM     34  H12 non d ame     -11.618  17.828  67.119  0.00  0.00     0.042 H 
BRANCH  33  35
ATOM     35  C12 non d ame     -10.181  17.813  68.725  0.00  0.00    -0.071 C 
ATOM     36  H13 non d ame      -9.885  18.737  69.223  0.00  0.00     0.028 H 
ATOM     37  H14 non d ame     -11.033  17.378  69.246  0.00  0.00     0.028 H 
ATOM     38  H15 non d ame      -9.349  17.109  68.738  0.00  0.00     0.028 H 
ENDBRANCH  33  35
BRANCH  33  39
ATOM     39  C13 non d ame     -10.464  19.650  66.939  0.00  0.00    -0.071 C 
ATOM     40  H16 non d ame     -11.443  20.038  66.661  0.00  0.00     0.028 H 
ATOM     41  H17 non d ame     -10.102  20.174  67.824  0.00  0.00     0.028 H 
ATOM     42  H18 non d ame      -9.766  19.802  66.115  0.00  0.00     0.028 H 
ENDBRANCH  33  39
ENDBRANCH   7  33
ENDBRANCH   4   7
ENDBRANCH   1   3
BRANCH   1  43
ATOM     43  C15 non d ame      -6.423  13.988  67.955  0.00  0.00     0.240 C 
ATOM     44  O5  non d ame      -5.479  13.642  67.319  0.00  0.00    -0.271 OA
ATOM     45  N6  non d ame      -7.285  12.968  68.616  0.00  0.00    -0.355 N 
ATOM     46  H46 non d ame      -8.087  13.249  69.162  0.00  0.00     0.162 HD
BRANCH  45  47
ATOM     47  C20 non d ame      -6.965  11.531  68.471  0.00  0.00     0.013 C 
ATOM     48  H30 non d ame      -6.183  11.437  67.717  0.00  0.00     0.072 H 
BRANCH  47  49
ATOM     49  C21 non d ame      -8.203  10.785  68.027  0.00  0.00    -0.038 C 
ATOM     50  H31 non d ame      -7.924  10.274  67.105  0.00  0.00     0.036 H 
ATOM     51  H32 non d ame      -8.525  10.208  68.895  0.00  0.00     0.036 H 
BRANCH  49  52
ATOM     52  C22 non d ame      -9.374  11.725  67.670  0.00  0.00     0.018 C 
ATOM     53  H33 non d ame      -9.282  12.580  68.340  0.00  0.00     0.048 H 
ATOM     54  H34 non d ame      -9.317  11.870  66.590  0.00  0.00     0.048 H 
BRANCH  52  55
ATOM     55  C23 non d ame     -10.775  11.113  67.948  0.00  0.00     0.259 C 
ATOM     56  O7  non d ame     -11.039  10.017  67.572  0.00  0.00    -0.265 OA
BRANCH  55  57
ATOM     57  O8  non d ame     -11.746  11.883  68.645  0.00  0.00    -0.317 OA
BRANCH  57  58
ATOM     58  C29 non d ame     -11.629  11.817  70.070  0.00  0.00     0.052 C 
ATOM     59  H47 non d ame     -12.170  10.920  70.370  0.00  0.00     0.082 H 
ATOM     60  H48 non d ame     -10.564  11.907  70.282  0.00  0.00     0.082 H 
BRANCH  58  61
ATOM     61  C35 non d ame     -12.355  13.052  70.667  0.00  0.00    -0.034 A 
ATOM     62  C30 non d ame     -13.275  12.888  71.697  0.00  0.00    -0.075 A 
ATOM     63  C31 non d ame     -13.927  13.997  72.233  0.00  0.00    -0.082 A 
ATOM     64  H49 non d ame     -13.485  11.892  72.083  0.00  0.00     0.084 H 
ATOM     65  C32 non d ame     -13.657  15.274  71.734  0.00  0.00    -0.083 A 
ATOM     66  H50 non d ame     -14.646  13.866  73.041  0.00  0.00     0.083 H 
ATOM     67  C33 non d ame     -12.741  15.433  70.704  0.00  0.00    -0.082 A 
ATOM     68  H51 non d ame     -14.163  16.147  72.148  0.00  0.00     0.083 H 
ATOM     69  C34 non d ame     -12.085  14.327  70.166  0.00  0.00    -0.075 A 
ATOM     70  H52 non d ame     -12.534  16.431  70.315  0.00  0.00     0.083 H 
ATOM     71  H53 non d ame     -11.365  14.460  69.357  0.00  0.00     0.084 H 
ENDBRANCH  58  61
ENDBRANCH  57  58
ENDBRANCH  55  57
ENDBRANCH  52  55
ENDBRANCH  49  52
ENDBRANCH  47  49
BRANCH  47  72
ATOM     72  C24 non d ame      -6.483  10.972  69.807  0.00  0.00    -0.039 C 
ATOM     73  H35 non d ame      -7.280  11.191  70.518  0.00  0.00     0.036 H 
ATOM     74  H36 non d ame      -6.202   9.938  69.605  0.00  0.00     0.036 H 
BRANCH  72  75
ATOM     75  C25 non d ame      -5.168  11.726  70.326  0.00  0.00    -0.001 C 
ATOM     76  C26 non d ame      -3.925  11.469  69.281  0.00  0.00    -0.035 C 
ATOM     77  C27 non d ame      -2.851  11.031  69.979  0.00  0.00     0.085 C 
ATOM     78  H38 non d ame      -4.158  10.633  68.622  0.00  0.00     0.036 H 
ATOM     79  H39 non d ame      -3.587  12.416  68.860  0.00  0.00     0.036 H 
ATOM     80  N5  non d ame      -3.342  10.654  71.356  0.00  0.00    -0.049 N 
ATOM     81  H40 non d ame      -2.514  10.131  69.463  0.00  0.00     0.075 H 
ATOM     82  H41 non d ame      -2.187  11.891  70.063  0.00  0.00     0.075 H 
ATOM     83  C28 non d ame      -4.815  11.301  71.493  0.00  0.00     0.193 C 
ATOM     84  H42 non d ame      -3.431   9.648  71.363  0.00  0.00     0.280 HD
ATOM     85  H43 non d ame      -2.728  11.111  72.014  0.00  0.00     0.280 HD
ATOM     86  H44 non d ame      -4.971  12.202  72.088  0.00  0.00     0.129 H 
ATOM     87  H37 non d ame      -5.370  12.758  70.612  0.00  0.00     0.046 H 
BRANCH  83  88
ATOM     88  O6  non d ame      -5.730  10.336  72.015  0.00  0.00    -0.369 OA
ATOM     89  H45 non d ame      -6.603  10.728  72.086  0.00  0.00     0.212 HD
ENDBRANCH  83  88
ENDBRANCH  72  75
ENDBRANCH  47  72
ENDBRANCH  45  47
ENDBRANCH   1  43
BRANCH   1  90
ATOM     90  C16 non d ame      -6.752  15.886  69.570  0.00  0.00    -0.035 C 
ATOM     91  H21 non d ame      -7.315  16.818  69.623  0.00  0.00     0.037 H 
ATOM     92  H22 non d ame      -7.111  15.003  70.097  0.00  0.00     0.037 H 
BRANCH  90  93
ATOM     93  C17 non d ame      -5.333  16.196  70.143  0.00  0.00    -0.059 C 
ATOM     94  H23 non d ame      -4.601  15.904  69.390  0.00  0.00     0.038 H 
BRANCH  93  95
ATOM     95  C18 non d ame      -5.133  17.717  70.437  0.00  0.00    -0.073 C 
ATOM     96  H24 non d ame      -4.243  18.073  69.919  0.00  0.00     0.028 H 
ATOM     97  H25 non d ame      -6.003  18.272  70.085  0.00  0.00     0.028 H 
ATOM     98  H26 non d ame      -5.016  17.868  71.509  0.00  0.00     0.028 H 
ENDBRANCH  93  95
BRANCH  93  99
ATOM     99  C19 non d ame      -5.054  15.358  71.394  0.00  0.00    -0.073 C 
ATOM    100  H27 non d ame      -4.328  15.875  72.022  0.00  0.00     0.028 H 
ATOM    101  H28 non d ame      -5.981  15.217  71.951  0.00  0.00     0.028 H 
ATOM    102  H29 non d ame      -4.654  14.388  71.100  0.00  0.00     0.028 H 
ENDBRANCH  93  99
ENDBRANCH  90  93
ENDBRANCH   1  90
TORSDOF 26
ENDMDL
MODEL 8
REMARK VINA RESULT:      -6.4      3.168      6.927
REMARK  26 active torsions:
REMARK  status: ('A' for Active; 'I' for Inactive)
REMARK    1  A    between atoms: C2_2  and  C3_3 
REMARK    2  A    between atoms: C4_6  and  C5_7 
REMARK       I    between atoms: C5_7  and  N2_9 
REMARK    3  A    between atoms: N2_9  and  C6_10 
REMARK    4  A    between atoms: C6_10  and  C7_11 
REMARK    5  A    between atoms: C6_10  and  C8_13 
REMARK       I    between atoms: C7_11  and  N3_14 
REMARK    6  A    between atoms: N3_14  and  C9_15 
REMARK    7  A    between atoms: C9_15  and  C10_16 
REMARK    8  A    between atoms: C9_15  and  C11_18 
REMARK       I    between atoms: C10_16  and  N4_21 
REMARK    9  A    between atoms: C11_18  and  C12_19 
REMARK   10  A    between atoms: C11_18  and  C13_20 
REMARK   11  A    between atoms: N4_21  and  C14_22 
REMARK   12  A    between atoms: C14_22  and  C15_23 
REMARK   13  A    between atoms: C14_22  and  C16_25 
REMARK       I    between atoms: C15_23  and  N6_40 
REMARK   14  A    between atoms: C16_25  and  C17_26 
REMARK   15  A    between atoms: C17_26  and  C18_27 
REMARK   16  A    between atoms: C17_26  and  C19_28 
REMARK   17  A    between atoms: C20_29  and  C21_30 
REMARK   18  A    between atoms: C20_29  and  C24_33 
REMARK   19  A    between atoms: C20_29  and  N6_40 
REMARK   20  A    between atoms: C21_30  and  C22_31 
REMARK   21  A    between atoms: C22_31  and  C23_32 
REMARK   22  A    between atoms: C23_32  and  O8_43 
REMARK   23  A    between atoms: C24_33  and  C25_34 
REMARK   24  A    between atoms: C28_38  and  O6_39 
REMARK   25  A    between atoms: C29_42  and  O8_43 
REMARK   26  A    between atoms: C29_42  and  C35_49 
ROOT
ATOM      1  C14 non d ame      -9.960  12.616  66.745  0.00  0.00     0.089 C 
ATOM      2  H20 non d ame      -8.895  12.655  66.973  0.00  0.00     0.087 H 
ENDROOT
BRANCH   1   3
ATOM      3  N4  non d ame     -10.468  11.345  67.239  0.00  0.00    -0.346 N 
ATOM      4  C10 non d ame      -9.744  10.610  68.339  0.00  0.00     0.241 C 
ATOM      5  O4  non d ame      -8.752  11.061  68.809  0.00  0.00    -0.271 OA
ATOM      6  H19 non d ame     -11.313  10.978  66.823  0.00  0.00     0.163 HD
BRANCH   4   7
ATOM      7  C9  non d ame     -10.287   9.299  68.841  0.00  0.00     0.092 C 
ATOM      8  H11 non d ame     -11.233   9.088  68.343  0.00  0.00     0.088 H 
BRANCH   7   9
ATOM      9  N3  non d ame      -9.362   8.218  68.487  0.00  0.00    -0.346 N 
ATOM     10  C7  non d ame      -9.760   7.209  67.538  0.00  0.00     0.240 C 
ATOM     11  O3  non d ame     -10.823   7.250  67.049  0.00  0.00    -0.271 OA
ATOM     12  H10 non d ame      -8.442   8.169  68.902  0.00  0.00     0.163 HD
BRANCH  10  13
ATOM     13  C6  non d ame      -8.771   6.061  67.168  0.00  0.00     0.086 C 
ATOM     14  H6  non d ame      -9.245   5.265  66.593  0.00  0.00     0.086 H 
BRANCH  13  15
ATOM     15  N2  non d ame      -7.711   6.602  66.335  0.00  0.00    -0.343 N 
ATOM     16  C5  non d ame      -7.442   5.998  65.027  0.00  0.00     0.273 C 
ATOM     17  O2  non d ame      -8.083   5.077  64.657  0.00  0.00    -0.266 OA
ATOM     18  H5  non d ame      -7.166   7.388  66.659  0.00  0.00     0.163 HD
BRANCH  16  19
ATOM     19  C4  non d ame      -6.325   6.561  64.134  0.00  0.00     0.154 A 
ATOM     20  C1  non d ame      -5.871   7.917  64.070  0.00  0.00    -0.017 A 
ATOM     21  C2  non d ame      -4.839   7.909  63.105  0.00  0.00     0.077 A 
ATOM     22  H1  non d ame      -6.234   8.775  64.636  0.00  0.00     0.091 H 
ATOM     23  O1  non d ame      -4.721   6.687  62.673  0.00  0.00    -0.218 OA
ATOM     24  N1  non d ame      -5.579   5.882  63.259  0.00  0.00    -0.123 NA
BRANCH  21  25
ATOM     25  C3  non d ame      -4.016   9.108  62.655  0.00  0.00    -0.029 C 
ATOM     26  H2  non d ame      -3.181   9.255  63.342  0.00  0.00     0.036 H 
ATOM     27  H3  non d ame      -3.633   8.930  61.651  0.00  0.00     0.036 H 
ATOM     28  H4  non d ame      -4.644  10.000  62.651  0.00  0.00     0.036 H 
ENDBRANCH  21  25
ENDBRANCH  16  19
ENDBRANCH  13  15
BRANCH  13  29
ATOM     29  C8  non d ame      -8.188   5.471  68.427  0.00  0.00    -0.049 C 
ATOM     30  H7  non d ame      -7.176   5.116  68.227  0.00  0.00     0.030 H 
ATOM     31  H8  non d ame      -8.158   6.234  69.205  0.00  0.00     0.030 H 
ATOM     32  H9  non d ame      -8.806   4.637  68.758  0.00  0.00     0.030 H 
ENDBRANCH  13  29
ENDBRANCH  10  13
ENDBRANCH   7   9
BRANCH   7  33
ATOM     33  C11 non d ame     -10.442   9.360  70.389  0.00  0.00    -0.033 C 
ATOM     34  H12 non d ame     -10.409  10.410  70.681  0.00  0.00     0.042 H 
BRANCH  33  35
ATOM     35  C12 non d ame     -11.821   8.789  70.845  0.00  0.00    -0.071 C 
ATOM     36  H13 non d ame     -12.036   7.875  70.292  0.00  0.00     0.028 H 
ATOM     37  H14 non d ame     -11.788   8.568  71.912  0.00  0.00     0.028 H 
ATOM     38  H15 non d ame     -12.600   9.525  70.651  0.00  0.00     0.028 H 
ENDBRANCH  33  35
BRANCH  33  39
ATOM     39  C13 non d ame      -9.261   8.623  71.099  0.00  0.00    -0.071 C 
ATOM     40  H16 non d ame      -8.325   9.132  70.869  0.00  0.00     0.028 H 
ATOM     41  H17 non d ame      -9.424   8.629  72.177  0.00  0.00     0.028 H 
ATOM     42  H18 non d ame      -9.212   7.594  70.744  0.00  0.00     0.028 H 
ENDBRANCH  33  39
ENDBRANCH   7  33
ENDBRANCH   4   7
ENDBRANCH   1   3
BRANCH   1  43
ATOM     43  C15 non d ame     -10.750  13.766  67.434  0.00  0.00     0.240 C 
ATOM     44  O5  non d ame     -11.929  13.837  67.299  0.00  0.00    -0.271 OA
ATOM     45  N6  non d ame     -10.038  14.775  68.269  0.00  0.00    -0.355 N 
ATOM     46  H46 non d ame      -9.037  14.724  68.394  0.00  0.00     0.162 HD
BRANCH  45  47
ATOM     47  C20 non d ame     -10.804  15.862  68.917  0.00  0.00     0.013 C 
ATOM     48  H30 non d ame     -11.776  15.924  68.429  0.00  0.00     0.072 H 
BRANCH  47  49
ATOM     49  C21 non d ame     -10.058  17.167  68.752  0.00  0.00    -0.038 C 
ATOM     50  H31 non d ame     -10.450  17.830  69.523  0.00  0.00     0.036 H 
ATOM     51  H32 non d ame      -9.000  16.902  68.746  0.00  0.00     0.036 H 
BRANCH  49  52
ATOM     52  C22 non d ame     -10.343  17.853  67.399  0.00  0.00     0.018 C 
ATOM     53  H33 non d ame     -11.196  17.324  66.973  0.00  0.00     0.048 H 
ATOM     54  H34 non d ame     -10.415  18.918  67.617  0.00  0.00     0.048 H 
BRANCH  52  55
ATOM     55  C23 non d ame      -9.190  17.703  66.367  0.00  0.00     0.259 C 
ATOM     56  O7  non d ame      -8.869  16.629  65.974  0.00  0.00    -0.265 OA
BRANCH  55  57
ATOM     57  O8  non d ame      -8.512  18.865  65.906  0.00  0.00    -0.317 OA
BRANCH  57  58
ATOM     58  C29 non d ame      -8.700  20.017  66.733  0.00  0.00     0.052 C 
ATOM     59  H47 non d ame      -8.819  20.856  66.048  0.00  0.00     0.082 H 
ATOM     60  H48 non d ame      -9.505  19.758  67.421  0.00  0.00     0.082 H 
BRANCH  58  61
ATOM     61  C35 non d ame      -7.402  20.234  67.555  0.00  0.00    -0.034 A 
ATOM     62  C30 non d ame      -7.252  19.619  68.793  0.00  0.00    -0.075 A 
ATOM     63  C31 non d ame      -6.086  19.814  69.533  0.00  0.00    -0.082 A 
ATOM     64  H49 non d ame      -8.046  18.985  69.185  0.00  0.00     0.084 H 
ATOM     65  C32 non d ame      -5.069  20.630  69.030  0.00  0.00    -0.083 A 
ATOM     66  H50 non d ame      -5.970  19.329  70.502  0.00  0.00     0.083 H 
ATOM     67  C33 non d ame      -5.225  21.245  67.795  0.00  0.00    -0.082 A 
ATOM     68  H51 non d ame      -4.154  20.788  69.601  0.00  0.00     0.083 H 
ATOM     69  C34 non d ame      -6.388  21.050  67.052  0.00  0.00    -0.075 A 
ATOM     70  H52 non d ame      -4.431  21.883  67.406  0.00  0.00     0.083 H 
ATOM     71  H53 non d ame      -6.502  21.536  66.081  0.00  0.00     0.084 H 
ENDBRANCH  58  61
ENDBRANCH  57  58
ENDBRANCH  55  57
ENDBRANCH  52  55
ENDBRANCH  49  52
ENDBRANCH  47  49
BRANCH  47  72
ATOM     72  C24 non d ame     -10.975  15.556  70.403  0.00  0.00    -0.039 C 
ATOM     73  H35 non d ame     -10.453  14.614  70.568  0.00  0.00     0.036 H 
ATOM     74  H36 non d ame     -10.650  16.457  70.925  0.00  0.00     0.036 H 
BRANCH  72  75
ATOM     75  C25 non d ame     -12.512  15.318  70.786  0.00  0.00    -0.001 C 
ATOM     76  C26 non d ame     -12.836  15.989  72.252  0.00  0.00    -0.035 C 
ATOM     77  C27 non d ame     -13.437  15.062  73.034  0.00  0.00     0.085 C 
ATOM     78  H38 non d ame     -11.905  16.202  72.778  0.00  0.00     0.036 H 
ATOM     79  H39 non d ame     -13.594  16.767  72.149  0.00  0.00     0.036 H 
ATOM     80  N5  non d ame     -13.260  13.727  72.352  0.00  0.00    -0.049 N 
ATOM     81  H40 non d ame     -12.876  15.060  73.969  0.00  0.00     0.075 H 
ATOM     82  H41 non d ame     -14.495  15.322  73.033  0.00  0.00     0.075 H 
ATOM     83  C28 non d ame     -12.790  14.058  70.842  0.00  0.00     0.193 C 
ATOM     84  H42 non d ame     -12.501  13.260  72.829  0.00  0.00     0.280 HD
ATOM     85  H43 non d ame     -14.173  13.299  72.317  0.00  0.00     0.280 HD
ATOM     86  H44 non d ame     -13.492  13.972  70.013  0.00  0.00     0.129 H 
ATOM     87  H37 non d ame     -13.185  15.570  69.966  0.00  0.00     0.046 H 
BRANCH  83  88
ATOM     88  O6  non d ame     -11.673  13.243  70.484  0.00  0.00    -0.369 OA
ATOM     89  H45 non d ame     -11.909  12.318  70.580  0.00  0.00     0.212 HD
ENDBRANCH  83  88
ENDBRANCH  72  75
ENDBRANCH  47  72
ENDBRANCH  45  47
ENDBRANCH   1  43
BRANCH   1  90
ATOM     90  C16 non d ame     -10.167  12.684  65.240  0.00  0.00    -0.035 C 
ATOM     91  H21 non d ame     -10.776  13.572  65.072  0.00  0.00     0.037 H 
ATOM     92  H22 non d ame      -9.169  12.618  64.808  0.00  0.00     0.037 H 
BRANCH  90  93
ATOM     93  C17 non d ame     -10.978  11.479  64.665  0.00  0.00    -0.059 C 
ATOM     94  H23 non d ame     -11.310  10.872  65.507  0.00  0.00     0.038 H 
BRANCH  93  95
ATOM     95  C18 non d ame     -12.247  11.942  63.881  0.00  0.00    -0.073 C 
ATOM     96  H24 non d ame     -12.326  11.378  62.952  0.00  0.00     0.028 H 
ATOM     97  H25 non d ame     -13.134  11.765  64.489  0.00  0.00     0.028 H 
ATOM     98  H26 non d ame     -12.168  13.006  63.656  0.00  0.00     0.028 H 
ENDBRANCH  93  95
BRANCH  93  99
ATOM     99  C19 non d ame     -10.090  10.592  63.789  0.00  0.00    -0.073 C 
ATOM    100  H27 non d ame      -9.377  11.214  63.248  0.00  0.00     0.028 H 
ATOM    101  H28 non d ame      -9.551   9.883  64.418  0.00  0.00     0.028 H 
ATOM    102  H29 non d ame     -10.710  10.047  63.078  0.00  0.00     0.028 H 
ENDBRANCH  93  99
ENDBRANCH  90  93
ENDBRANCH   1  90
TORSDOF 26
ENDMDL
MODEL 9
REMARK VINA RESULT:      -6.3      3.096      7.749
REMARK  26 active torsions:
REMARK  status: ('A' for Active; 'I' for Inactive)
REMARK    1  A    between atoms: C2_2  and  C3_3 
REMARK    2  A    between atoms: C4_6  and  C5_7 
REMARK       I    between atoms: C5_7  and  N2_9 
REMARK    3  A    between atoms: N2_9  and  C6_10 
REMARK    4  A    between atoms: C6_10  and  C7_11 
REMARK    5  A    between atoms: C6_10  and  C8_13 
REMARK       I    between atoms: C7_11  and  N3_14 
REMARK    6  A    between atoms: N3_14  and  C9_15 
REMARK    7  A    between atoms: C9_15  and  C10_16 
REMARK    8  A    between atoms: C9_15  and  C11_18 
REMARK       I    between atoms: C10_16  and  N4_21 
REMARK    9  A    between atoms: C11_18  and  C12_19 
REMARK   10  A    between atoms: C11_18  and  C13_20 
REMARK   11  A    between atoms: N4_21  and  C14_22 
REMARK   12  A    between atoms: C14_22  and  C15_23 
REMARK   13  A    between atoms: C14_22  and  C16_25 
REMARK       I    between atoms: C15_23  and  N6_40 
REMARK   14  A    between atoms: C16_25  and  C17_26 
REMARK   15  A    between atoms: C17_26  and  C18_27 
REMARK   16  A    between atoms: C17_26  and  C19_28 
REMARK   17  A    between atoms: C20_29  and  C21_30 
REMARK   18  A    between atoms: C20_29  and  C24_33 
REMARK   19  A    between atoms: C20_29  and  N6_40 
REMARK   20  A    between atoms: C21_30  and  C22_31 
REMARK   21  A    between atoms: C22_31  and  C23_32 
REMARK   22  A    between atoms: C23_32  and  O8_43 
REMARK   23  A    between atoms: C24_33  and  C25_34 
REMARK   24  A    between atoms: C28_38  and  O6_39 
REMARK   25  A    between atoms: C29_42  and  O8_43 
REMARK   26  A    between atoms: C29_42  and  C35_49 
ROOT
ATOM      1  C14 non d ame      -8.954   9.857  64.999  0.00  0.00     0.089 C 
ATOM      2  H20 non d ame      -7.953  10.127  65.334  0.00  0.00     0.087 H 
ENDROOT
BRANCH   1   3
ATOM      3  N4  non d ame      -9.091   8.416  65.139  0.00  0.00    -0.346 N 
ATOM      4  C10 non d ame      -8.047   7.620  65.883  0.00  0.00     0.241 C 
ATOM      5  O4  non d ame      -7.104   8.163  66.358  0.00  0.00    -0.271 OA
ATOM      6  H19 non d ame      -9.899   7.972  64.725  0.00  0.00     0.163 HD
BRANCH   4   7
ATOM      7  C9  non d ame      -8.207   6.129  66.023  0.00  0.00     0.092 C 
ATOM      8  H11 non d ame      -7.221   5.666  66.072  0.00  0.00     0.088 H 
BRANCH   7   9
ATOM      9  N3  non d ame      -8.889   5.827  67.284  0.00  0.00    -0.346 N 
ATOM     10  C7  non d ame      -8.145   5.294  68.398  0.00  0.00     0.240 C 
ATOM     11  O3  non d ame      -6.995   5.100  68.296  0.00  0.00    -0.271 OA
ATOM     12  H10 non d ame      -9.881   5.987  67.386  0.00  0.00     0.163 HD
BRANCH  10  13
ATOM     13  C6  non d ame      -8.878   4.971  69.736  0.00  0.00     0.086 C 
ATOM     14  H6  non d ame      -8.245   5.116  70.611  0.00  0.00     0.086 H 
BRANCH  13  15
ATOM     15  N2  non d ame     -10.007   5.875  69.885  0.00  0.00    -0.343 N 
ATOM     16  C5  non d ame     -10.428   6.287  71.226  0.00  0.00     0.273 C 
ATOM     17  O2  non d ame      -9.855   5.883  72.178  0.00  0.00    -0.266 OA
ATOM     18  H5  non d ame     -10.492   6.213  69.067  0.00  0.00     0.163 HD
BRANCH  16  19
ATOM     19  C4  non d ame     -11.618   7.244  71.399  0.00  0.00     0.154 A 
ATOM     20  C1  non d ame     -11.569   8.668  71.532  0.00  0.00    -0.017 A 
ATOM     21  C2  non d ame     -12.918   9.068  71.662  0.00  0.00     0.077 A 
ATOM     22  H1  non d ame     -10.690   9.313  71.535  0.00  0.00     0.091 H 
ATOM     23  O1  non d ame     -13.648   7.992  71.607  0.00  0.00    -0.218 OA
ATOM     24  N1  non d ame     -12.911   6.915  71.454  0.00  0.00    -0.123 NA
BRANCH  21  25
ATOM     25  C3  non d ame     -13.423  10.494  71.833  0.00  0.00    -0.029 C 
ATOM     26  H2  non d ame     -13.592  10.697  72.891  0.00  0.00     0.036 H 
ATOM     27  H3  non d ame     -12.680  11.191  71.444  0.00  0.00     0.036 H 
ATOM     28  H4  non d ame     -14.358  10.618  71.285  0.00  0.00     0.036 H 
ENDBRANCH  21  25
ENDBRANCH  16  19
ENDBRANCH  13  15
BRANCH  13  29
ATOM     29  C8  non d ame      -9.361   3.543  69.717  0.00  0.00    -0.049 C 
ATOM     30  H7  non d ame      -8.622   2.902  70.198  0.00  0.00     0.030 H 
ATOM     31  H8  non d ame     -10.308   3.472  70.254  0.00  0.00     0.030 H 
ATOM     32  H9  non d ame      -9.504   3.221  68.686  0.00  0.00     0.030 H 
ENDBRANCH  13  29
ENDBRANCH  10  13
ENDBRANCH   7   9
BRANCH   7  33
ATOM     33  C11 non d ame      -9.051   5.584  64.834  0.00  0.00    -0.033 C 
ATOM     34  H12 non d ame      -9.817   6.326  64.608  0.00  0.00     0.042 H 
BRANCH  33  35
ATOM     35  C12 non d ame      -8.180   5.404  63.553  0.00  0.00    -0.071 C 
ATOM     36  H13 non d ame      -7.129   5.547  63.805  0.00  0.00     0.028 H 
ATOM     37  H14 non d ame      -8.323   4.400  63.153  0.00  0.00     0.028 H 
ATOM     38  H15 non d ame      -8.478   6.138  62.805  0.00  0.00     0.028 H 
ENDBRANCH  33  35
BRANCH  33  39
ATOM     39  C13 non d ame      -9.768   4.252  65.224  0.00  0.00    -0.071 C 
ATOM     40  H16 non d ame      -9.055   3.429  65.182  0.00  0.00     0.028 H 
ATOM     41  H17 non d ame     -10.169   4.336  66.234  0.00  0.00     0.028 H 
ATOM     42  H18 non d ame     -10.583   4.061  64.525  0.00  0.00     0.028 H 
ENDBRANCH  33  39
ENDBRANCH   7  33
ENDBRANCH   4   7
ENDBRANCH   1   3
BRANCH   1  43
ATOM     43  C15 non d ame     -10.062  10.544  65.849  0.00  0.00     0.240 C 
ATOM     44  O5  non d ame     -10.665   9.913  66.656  0.00  0.00    -0.271 OA
ATOM     45  N6  non d ame     -10.366  11.991  65.663  0.00  0.00    -0.355 N 
ATOM     46  H46 non d ame      -9.858  12.539  64.983  0.00  0.00     0.162 HD
BRANCH  45  47
ATOM     47  C20 non d ame     -11.421  12.630  66.479  0.00  0.00     0.013 C 
ATOM     48  H30 non d ame     -12.176  11.875  66.700  0.00  0.00     0.072 H 
BRANCH  47  49
ATOM     49  C21 non d ame     -12.041  13.765  65.696  0.00  0.00    -0.038 C 
ATOM     50  H31 non d ame     -12.870  13.323  65.142  0.00  0.00     0.036 H 
ATOM     51  H32 non d ame     -12.231  14.555  66.424  0.00  0.00     0.036 H 
BRANCH  49  52
ATOM     52  C22 non d ame     -11.082  14.363  64.645  0.00  0.00     0.018 C 
ATOM     53  H33 non d ame     -10.091  13.986  64.900  0.00  0.00     0.048 H 
ATOM     54  H34 non d ame     -11.521  14.126  63.675  0.00  0.00     0.048 H 
BRANCH  52  55
ATOM     55  C23 non d ame     -10.977  15.912  64.702  0.00  0.00     0.259 C 
ATOM     56  O7  non d ame     -11.610  16.587  63.957  0.00  0.00    -0.265 OA
BRANCH  55  57
ATOM     57  O8  non d ame     -10.105  16.517  65.648  0.00  0.00    -0.317 OA
BRANCH  57  58
ATOM     58  C29 non d ame     -10.478  17.848  66.019  0.00  0.00     0.052 C 
ATOM     59  H47 non d ame     -10.522  18.412  65.089  0.00  0.00     0.082 H 
ATOM     60  H48 non d ame     -11.372  17.742  66.635  0.00  0.00     0.082 H 
BRANCH  58  61
ATOM     61  C35 non d ame      -9.343  18.436  66.898  0.00  0.00    -0.034 A 
ATOM     62  C30 non d ame      -8.651  17.616  67.783  0.00  0.00    -0.075 A 
ATOM     63  C31 non d ame      -7.632  18.145  68.573  0.00  0.00    -0.082 A 
ATOM     64  H49 non d ame      -8.907  16.560  67.857  0.00  0.00     0.084 H 
ATOM     65  C32 non d ame      -7.307  19.501  68.478  0.00  0.00    -0.083 A 
ATOM     66  H50 non d ame      -7.090  17.499  69.264  0.00  0.00     0.083 H 
ATOM     67  C33 non d ame      -8.002  20.317  67.596  0.00  0.00    -0.082 A 
ATOM     68  H51 non d ame      -6.511  19.923  69.092  0.00  0.00     0.083 H 
ATOM     69  C34 non d ame      -9.021  19.791  66.802  0.00  0.00    -0.075 A 
ATOM     70  H52 non d ame      -7.748  21.375  67.525  0.00  0.00     0.083 H 
ATOM     71  H53 non d ame      -9.562  20.439  66.111  0.00  0.00     0.084 H 
ENDBRANCH  58  61
ENDBRANCH  57  58
ENDBRANCH  55  57
ENDBRANCH  52  55
ENDBRANCH  49  52
ENDBRANCH  47  49
BRANCH  47  72
ATOM     72  C24 non d ame     -10.817  13.172  67.772  0.00  0.00    -0.039 C 
ATOM     73  H35 non d ame     -10.489  12.295  68.329  0.00  0.00     0.036 H 
ATOM     74  H36 non d ame     -10.090  13.922  67.460  0.00  0.00     0.036 H 
BRANCH  72  75
ATOM     75  C25 non d ame     -11.912  13.920  68.670  0.00  0.00    -0.001 C 
ATOM     76  C26 non d ame     -11.480  15.491  68.889  0.00  0.00    -0.035 C 
ATOM     77  C27 non d ame     -11.519  15.775  70.213  0.00  0.00     0.085 C 
ATOM     78  H38 non d ame     -10.430  15.629  68.631  0.00  0.00     0.036 H 
ATOM     79  H39 non d ame     -12.237  16.151  68.464  0.00  0.00     0.036 H 
ATOM     80  N5  non d ame     -11.622  14.458  70.944  0.00  0.00    -0.049 N 
ATOM     81  H40 non d ame     -10.557  16.235  70.442  0.00  0.00     0.075 H 
ATOM     82  H41 non d ame     -12.441  16.336  70.363  0.00  0.00     0.075 H 
ATOM     83  C28 non d ame     -12.027  13.362  69.829  0.00  0.00     0.193 C 
ATOM     84  H42 non d ame     -10.694  14.245  71.281  0.00  0.00     0.280 HD
ATOM     85  H43 non d ame     -12.387  14.551  71.596  0.00  0.00     0.280 HD
ATOM     86  H44 non d ame     -13.048  12.985  69.769  0.00  0.00     0.129 H 
ATOM     87  H37 non d ame     -12.928  13.729  68.326  0.00  0.00     0.046 H 
BRANCH  83  88
ATOM     88  O6  non d ame     -11.199  12.204  69.954  0.00  0.00    -0.369 OA
ATOM     89  H45 non d ame     -10.808  12.184  70.830  0.00  0.00     0.212 HD
ENDBRANCH  83  88
ENDBRANCH  72  75
ENDBRANCH  47  72
ENDBRANCH  45  47
ENDBRANCH   1  43
BRANCH   1  90
ATOM     90  C16 non d ame      -9.126  10.233  63.536  0.00  0.00    -0.035 C 
ATOM     91  H21 non d ame      -9.952   9.619  63.176  0.00  0.00     0.037 H 
ATOM     92  H22 non d ame      -9.210  11.319  63.525  0.00  0.00     0.037 H 
BRANCH  90  93
ATOM     93  C17 non d ame      -7.892   9.876  62.648  0.00  0.00    -0.059 C 
ATOM     94  H23 non d ame      -7.971   8.822  62.382  0.00  0.00     0.038 H 
BRANCH  93  95
ATOM     95  C18 non d ame      -7.859  10.702  61.323  0.00  0.00    -0.073 C 
ATOM     96  H24 non d ame      -8.533  11.554  61.409  0.00  0.00     0.028 H 
ATOM     97  H25 non d ame      -6.845  11.059  61.143  0.00  0.00     0.028 H 
ATOM     98  H26 non d ame      -8.174  10.070  60.493  0.00  0.00     0.028 H 
ENDBRANCH  93  95
BRANCH  93  99
ATOM     99  C19 non d ame      -6.588  10.048  63.432  0.00  0.00    -0.073 C 
ATOM    100  H27 non d ame      -6.714   9.649  64.438  0.00  0.00     0.028 H 
ATOM    101  H28 non d ame      -5.786   9.512  62.925  0.00  0.00     0.028 H 
ATOM    102  H29 non d ame      -6.337  11.107  63.490  0.00  0.00     0.028 H 
ENDBRANCH  93  99
ENDBRANCH  90  93
ENDBRANCH   1  90
TORSDOF 26
ENDMDL
MODEL 10
REMARK VINA RESULT:      -6.3      3.189      7.866
REMARK  26 active torsions:
REMARK  status: ('A' for Active; 'I' for Inactive)
REMARK    1  A    between atoms: C2_2  and  C3_3 
REMARK    2  A    between atoms: C4_6  and  C5_7 
REMARK       I    between atoms: C5_7  and  N2_9 
REMARK    3  A    between atoms: N2_9  and  C6_10 
REMARK    4  A    between atoms: C6_10  and  C7_11 
REMARK    5  A    between atoms: C6_10  and  C8_13 
REMARK       I    between atoms: C7_11  and  N3_14 
REMARK    6  A    between atoms: N3_14  and  C9_15 
REMARK    7  A    between atoms: C9_15  and  C10_16 
REMARK    8  A    between atoms: C9_15  and  C11_18 
REMARK       I    between atoms: C10_16  and  N4_21 
REMARK    9  A    between atoms: C11_18  and  C12_19 
REMARK   10  A    between atoms: C11_18  and  C13_20 
REMARK   11  A    between atoms: N4_21  and  C14_22 
REMARK   12  A    between atoms: C14_22  and  C15_23 
REMARK   13  A    between atoms: C14_22  and  C16_25 
REMARK       I    between atoms: C15_23  and  N6_40 
REMARK   14  A    between atoms: C16_25  and  C17_26 
REMARK   15  A    between atoms: C17_26  and  C18_27 
REMARK   16  A    between atoms: C17_26  and  C19_28 
REMARK   17  A    between atoms: C20_29  and  C21_30 
REMARK   18  A    between atoms: C20_29  and  C24_33 
REMARK   19  A    between atoms: C20_29  and  N6_40 
REMARK   20  A    between atoms: C21_30  and  C22_31 
REMARK   21  A    between atoms: C22_31  and  C23_32 
REMARK   22  A    between atoms: C23_32  and  O8_43 
REMARK   23  A    between atoms: C24_33  and  C25_34 
REMARK   24  A    between atoms: C28_38  and  O6_39 
REMARK   25  A    between atoms: C29_42  and  O8_43 
REMARK   26  A    between atoms: C29_42  and  C35_49 
ROOT
ATOM      1  C14 non d ame     -10.370  10.944  64.772  0.00  0.00     0.089 C 
ATOM      2  H20 non d ame     -11.402  10.601  64.848  0.00  0.00     0.087 H 
ENDROOT
BRANCH   1   3
ATOM      3  N4  non d ame      -9.863  11.115  66.125  0.00  0.00    -0.346 N 
ATOM      4  C10 non d ame     -10.815  11.166  67.294  0.00  0.00     0.241 C 
ATOM      5  O4  non d ame     -11.986  11.070  67.120  0.00  0.00    -0.271 OA
ATOM      6  H19 non d ame      -8.864  11.197  66.252  0.00  0.00     0.163 HD
BRANCH   4   7
ATOM      7  C9  non d ame     -10.274  11.338  68.689  0.00  0.00     0.092 C 
ATOM      8  H11 non d ame      -9.185  11.287  68.660  0.00  0.00     0.088 H 
BRANCH   7   9
ATOM      9  N3  non d ame     -10.631  12.667  69.192  0.00  0.00    -0.346 N 
ATOM     10  C7  non d ame     -10.067  13.846  68.583  0.00  0.00     0.240 C 
ATOM     11  O3  non d ame      -9.320  13.742  67.687  0.00  0.00    -0.271 OA
ATOM     12  H10 non d ame     -11.272  12.772  69.966  0.00  0.00     0.163 HD
BRANCH  10  13
ATOM     13  C6  non d ame     -10.449  15.257  69.126  0.00  0.00     0.086 C 
ATOM     14  H6  non d ame      -9.914  15.518  70.039  0.00  0.00     0.086 H 
BRANCH  13  15
ATOM     15  N2  non d ame     -10.088  16.257  68.134  0.00  0.00    -0.343 N 
ATOM     16  C5  non d ame      -8.833  16.997  68.281  0.00  0.00     0.273 C 
ATOM     17  O2  non d ame      -8.122  16.783  69.200  0.00  0.00    -0.266 OA
ATOM     18  H5  non d ame     -10.701  16.435  67.352  0.00  0.00     0.163 HD
BRANCH  16  19
ATOM     19  C4  non d ame      -8.437  18.055  67.238  0.00  0.00     0.154 A 
ATOM     20  C1  non d ame      -7.193  18.758  67.149  0.00  0.00    -0.017 A 
ATOM     21  C2  non d ame      -7.335  19.608  66.030  0.00  0.00     0.077 A 
ATOM     22  H1  non d ame      -6.321  18.665  67.797  0.00  0.00     0.091 H 
ATOM     23  O1  non d ame      -8.524  19.408  65.539  0.00  0.00    -0.218 OA
ATOM     24  N1  non d ame      -9.186  18.507  66.229  0.00  0.00    -0.123 NA
BRANCH  21  25
ATOM     25  C3  non d ame      -6.289  20.576  65.495  0.00  0.00    -0.029 C 
ATOM     26  H2  non d ame      -5.343  20.051  65.357  0.00  0.00     0.036 H 
ATOM     27  H3  non d ame      -6.623  20.979  64.538  0.00  0.00     0.036 H 
ATOM     28  H4  non d ame      -6.152  21.393  66.204  0.00  0.00     0.036 H 
ENDBRANCH  21  25
ENDBRANCH  16  19
ENDBRANCH  13  15
BRANCH  13  29
ATOM     29  C8  non d ame     -11.931  15.311  69.396  0.00  0.00    -0.049 C 
ATOM     30  H7  non d ame     -12.359  16.184  68.903  0.00  0.00     0.030 H 
ATOM     31  H8  non d ame     -12.403  14.407  69.010  0.00  0.00     0.030 H 
ATOM     32  H9  non d ame     -12.102  15.381  70.469  0.00  0.00     0.030 H 
ENDBRANCH  13  29
ENDBRANCH  10  13
ENDBRANCH   7   9
BRANCH   7  33
ATOM     33  C11 non d ame     -10.885  10.251  69.621  0.00  0.00    -0.033 C 
ATOM     34  H12 non d ame     -11.363   9.505  68.985  0.00  0.00     0.042 H 
BRANCH  33  35
ATOM     35  C12 non d ame      -9.780   9.524  70.448  0.00  0.00    -0.071 C 
ATOM     36  H13 non d ame      -8.852  10.094  70.394  0.00  0.00     0.028 H 
ATOM     37  H14 non d ame     -10.097   9.444  71.487  0.00  0.00     0.028 H 
ATOM     38  H15 non d ame      -9.619   8.526  70.040  0.00  0.00     0.028 H 
ENDBRANCH  33  35
BRANCH  33  39
ATOM     39  C13 non d ame     -11.979  10.864  70.552  0.00  0.00    -0.071 C 
ATOM     40  H16 non d ame     -11.554  11.048  71.539  0.00  0.00     0.028 H 
ATOM     41  H17 non d ame     -12.333  11.804  70.128  0.00  0.00     0.028 H 
ATOM     42  H18 non d ame     -12.813  10.168  70.640  0.00  0.00     0.028 H 
ENDBRANCH  33  39
ENDBRANCH   7  33
ENDBRANCH   4   7
ENDBRANCH   1   3
BRANCH   1  43
ATOM     43  C15 non d ame      -9.464   9.920  64.030  0.00  0.00     0.240 C 
ATOM     44  O5  non d ame      -9.326   9.998  62.851  0.00  0.00    -0.271 OA
ATOM     45  N6  non d ame      -8.760   8.847  64.788  0.00  0.00    -0.355 N 
ATOM     46  H46 non d ame      -8.866   8.774  65.790  0.00  0.00     0.162 HD
BRANCH  45  47
ATOM     47  C20 non d ame      -7.901   7.883  64.068  0.00  0.00     0.013 C 
ATOM     48  H30 non d ame      -8.160   7.929  63.010  0.00  0.00     0.072 H 
BRANCH  47  49
ATOM     49  C21 non d ame      -8.156   6.491  64.602  0.00  0.00    -0.038 C 
ATOM     50  H31 non d ame      -8.878   6.041  63.920  0.00  0.00     0.036 H 
ATOM     51  H32 non d ame      -7.170   6.040  64.728  0.00  0.00     0.036 H 
BRANCH  49  52
ATOM     52  C22 non d ame      -8.816   6.495  65.997  0.00  0.00     0.018 C 
ATOM     53  H33 non d ame      -8.013   6.712  66.704  0.00  0.00     0.048 H 
ATOM     54  H34 non d ame      -9.669   7.170  65.919  0.00  0.00     0.048 H 
BRANCH  52  55
ATOM     55  C23 non d ame      -9.396   5.117  66.419  0.00  0.00     0.259 C 
ATOM     56  O7  non d ame      -8.920   4.110  66.004  0.00  0.00    -0.265 OA
BRANCH  55  57
ATOM     57  O8  non d ame     -10.513   5.070  67.298  0.00  0.00    -0.317 OA
BRANCH  57  58
ATOM     58  C29 non d ame     -10.858   6.334  67.871  0.00  0.00     0.052 C 
ATOM     59  H47 non d ame     -10.037   7.005  67.623  0.00  0.00     0.082 H 
ATOM     60  H48 non d ame     -11.866   6.553  67.518  0.00  0.00     0.082 H 
BRANCH  58  61
ATOM     61  C35 non d ame     -10.905   6.164  69.413  0.00  0.00    -0.034 A 
ATOM     62  C30 non d ame      -9.882   5.488  70.070  0.00  0.00    -0.075 A 
ATOM     63  C31 non d ame      -9.924   5.335  71.455  0.00  0.00    -0.082 A 
ATOM     64  H49 non d ame      -9.049   5.079  69.501  0.00  0.00     0.084 H 
ATOM     65  C32 non d ame     -10.996   5.859  72.183  0.00  0.00    -0.083 A 
ATOM     66  H50 non d ame      -9.121   4.806  71.967  0.00  0.00     0.083 H 
ATOM     67  C33 non d ame     -12.016   6.530  71.523  0.00  0.00    -0.082 A 
ATOM     68  H51 non d ame     -11.037   5.744  73.266  0.00  0.00     0.083 H 
ATOM     69  C34 non d ame     -11.977   6.687  70.138  0.00  0.00    -0.075 A 
ATOM     70  H52 non d ame     -12.852   6.936  72.093  0.00  0.00     0.083 H 
ATOM     71  H53 non d ame     -12.782   7.217  69.627  0.00  0.00     0.084 H 
ENDBRANCH  58  61
ENDBRANCH  57  58
ENDBRANCH  55  57
ENDBRANCH  52  55
ENDBRANCH  49  52
ENDBRANCH  47  49
BRANCH  47  72
ATOM     72  C24 non d ame      -6.433   8.247  64.272  0.00  0.00    -0.039 C 
ATOM     73  H35 non d ame      -6.421   8.954  65.101  0.00  0.00     0.036 H 
ATOM     74  H36 non d ame      -5.907   7.296  64.360  0.00  0.00     0.036 H 
BRANCH  72  75
ATOM     75  C25 non d ame      -5.828   9.004  62.996  0.00  0.00    -0.001 C 
ATOM     76  C26 non d ame      -4.311   8.451  62.683  0.00  0.00    -0.035 C 
ATOM     77  C27 non d ame      -3.473   9.509  62.576  0.00  0.00     0.085 C 
ATOM     78  H38 non d ame      -3.926   7.907  63.546  0.00  0.00     0.036 H 
ATOM     79  H39 non d ame      -4.276   7.996  61.692  0.00  0.00     0.036 H 
ATOM     80  N5  non d ame      -4.212  10.713  63.110  0.00  0.00    -0.049 N 
ATOM     81  H40 non d ame      -2.635   9.286  63.236  0.00  0.00     0.075 H 
ATOM     82  H41 non d ame      -3.306   9.642  61.507  0.00  0.00     0.075 H 
ATOM     83  C28 non d ame      -5.765  10.279  63.196  0.00  0.00     0.193 C 
ATOM     84  H42 non d ame      -3.869  10.867  64.047  0.00  0.00     0.280 HD
ATOM     85  H43 non d ame      -4.119  11.438  62.413  0.00  0.00     0.280 HD
ATOM     86  H44 non d ame      -6.480  10.631  62.452  0.00  0.00     0.129 H 
ATOM     87  H37 non d ame      -6.528   9.031  62.162  0.00  0.00     0.046 H 
BRANCH  83  88
ATOM     88  O6  non d ame      -6.312  10.654  64.460  0.00  0.00    -0.369 OA
ATOM     89  H45 non d ame      -6.211   9.929  65.081  0.00  0.00     0.212 HD
ENDBRANCH  83  88
ENDBRANCH  72  75
ENDBRANCH  47  72
ENDBRANCH  45  47
ENDBRANCH   1  43
BRANCH   1  90
ATOM     90  C16 non d ame     -10.324  12.283  64.052  0.00  0.00    -0.035 C 
ATOM     91  H21 non d ame      -9.817  12.962  64.737  0.00  0.00     0.037 H 
ATOM     92  H22 non d ame      -9.891  12.070  63.075  0.00  0.00     0.037 H 
BRANCH  90  93
ATOM     93  C17 non d ame     -11.734  12.899  63.785  0.00  0.00    -0.059 C 
ATOM     94  H23 non d ame     -11.671  13.483  62.867  0.00  0.00     0.038 H 
BRANCH  93  95
ATOM     95  C18 non d ame     -12.828  11.803  63.579  0.00  0.00    -0.073 C 
ATOM     96  H24 non d ame     -13.576  12.166  62.874  0.00  0.00     0.028 H 
ATOM     97  H25 non d ame     -12.366  10.899  63.184  0.00  0.00     0.028 H 
ATOM     98  H26 non d ame     -13.304  11.580  64.533  0.00  0.00     0.028 H 
ENDBRANCH  93  95
BRANCH  93  99
ATOM     99  C19 non d ame     -12.131  13.861  64.909  0.00  0.00    -0.073 C 
ATOM    100  H27 non d ame     -13.194  13.748  65.124  0.00  0.00     0.028 H 
ATOM    101  H28 non d ame     -11.552  13.633  65.804  0.00  0.00     0.028 H 
ATOM    102  H29 non d ame     -11.931  14.885  64.597  0.00  0.00     0.028 H 
ENDBRANCH  93  99
ENDBRANCH  90  93
ENDBRANCH   1  90
TORSDOF 26
ENDMDL
MODEL 11
REMARK VINA RESULT:      -6.2      2.112      7.278
REMARK  26 active torsions:
REMARK  status: ('A' for Active; 'I' for Inactive)
REMARK    1  A    between atoms: C2_2  and  C3_3 
REMARK    2  A    between atoms: C4_6  and  C5_7 
REMARK       I    between atoms: C5_7  and  N2_9 
REMARK    3  A    between atoms: N2_9  and  C6_10 
REMARK    4  A    between atoms: C6_10  and  C7_11 
REMARK    5  A    between atoms: C6_10  and  C8_13 
REMARK       I    between atoms: C7_11  and  N3_14 
REMARK    6  A    between atoms: N3_14  and  C9_15 
REMARK    7  A    between atoms: C9_15  and  C10_16 
REMARK    8  A    between atoms: C9_15  and  C11_18 
REMARK       I    between atoms: C10_16  and  N4_21 
REMARK    9  A    between atoms: C11_18  and  C12_19 
REMARK   10  A    between atoms: C11_18  and  C13_20 
REMARK   11  A    between atoms: N4_21  and  C14_22 
REMARK   12  A    between atoms: C14_22  and  C15_23 
REMARK   13  A    between atoms: C14_22  and  C16_25 
REMARK       I    between atoms: C15_23  and  N6_40 
REMARK   14  A    between atoms: C16_25  and  C17_26 
REMARK   15  A    between atoms: C17_26  and  C18_27 
REMARK   16  A    between atoms: C17_26  and  C19_28 
REMARK   17  A    between atoms: C20_29  and  C21_30 
REMARK   18  A    between atoms: C20_29  and  C24_33 
REMARK   19  A    between atoms: C20_29  and  N6_40 
REMARK   20  A    between atoms: C21_30  and  C22_31 
REMARK   21  A    between atoms: C22_31  and  C23_32 
REMARK   22  A    between atoms: C23_32  and  O8_43 
REMARK   23  A    between atoms: C24_33  and  C25_34 
REMARK   24  A    between atoms: C28_38  and  O6_39 
REMARK   25  A    between atoms: C29_42  and  O8_43 
REMARK   26  A    between atoms: C29_42  and  C35_49 
ROOT
ATOM      1  C14 non d ame      -8.896  16.296  67.016  0.00  0.00     0.089 C 
ATOM      2  H20 non d ame      -9.465  16.378  67.941  0.00  0.00     0.087 H 
ENDROOT
BRANCH   1   3
ATOM      3  N4  non d ame      -7.736  15.460  67.286  0.00  0.00    -0.346 N 
ATOM      4  C10 non d ame      -7.282  15.222  68.705  0.00  0.00     0.241 C 
ATOM      5  O4  non d ame      -7.866  15.718  69.612  0.00  0.00    -0.271 OA
ATOM      6  H19 non d ame      -7.252  15.049  66.499  0.00  0.00     0.163 HD
BRANCH   4   7
ATOM      7  C9  non d ame      -6.084  14.349  68.967  0.00  0.00     0.092 C 
ATOM      8  H11 non d ame      -5.824  14.405  70.024  0.00  0.00     0.088 H 
BRANCH   7   9
ATOM      9  N3  non d ame      -6.424  12.953  68.679  0.00  0.00    -0.346 N 
ATOM     10  C7  non d ame      -6.339  11.960  69.721  0.00  0.00     0.240 C 
ATOM     11  O3  non d ame      -5.997  12.267  70.798  0.00  0.00    -0.271 OA
ATOM     12  H10 non d ame      -6.718  12.673  67.754  0.00  0.00     0.163 HD
BRANCH  10  13
ATOM     13  C6  non d ame      -6.699  10.475  69.407  0.00  0.00     0.086 C 
ATOM     14  H6  non d ame      -6.128   9.766  70.006  0.00  0.00     0.086 H 
BRANCH  13  15
ATOM     15  N2  non d ame      -8.100  10.252  69.723  0.00  0.00    -0.343 N 
ATOM     16  C5  non d ame      -8.528   8.942  70.219  0.00  0.00     0.273 C 
ATOM     17  O2  non d ame      -7.738   8.074  70.358  0.00  0.00    -0.266 OA
ATOM     18  H5  non d ame      -8.769  10.999  69.600  0.00  0.00     0.163 HD
BRANCH  16  19
ATOM     19  C4  non d ame     -10.006   8.694  70.560  0.00  0.00     0.154 A 
ATOM     20  C1  non d ame     -10.921   9.615  71.161  0.00  0.00    -0.017 A 
ATOM     21  C2  non d ame     -12.139   8.906  71.260  0.00  0.00     0.077 A 
ATOM     22  H1  non d ame     -10.731  10.641  71.479  0.00  0.00     0.091 H 
ATOM     23  O1  non d ame     -11.937   7.718  70.767  0.00  0.00    -0.218 OA
ATOM     24  N1  non d ame     -10.699   7.571  70.353  0.00  0.00    -0.123 NA
BRANCH  21  25
ATOM     25  C3  non d ame     -13.447   9.435  71.832  0.00  0.00    -0.029 C 
ATOM     26  H2  non d ame     -13.404  10.523  71.894  0.00  0.00     0.036 H 
ATOM     27  H3  non d ame     -14.272   9.141  71.185  0.00  0.00     0.036 H 
ATOM     28  H4  non d ame     -13.602   9.021  72.829  0.00  0.00     0.036 H 
ENDBRANCH  21  25
ENDBRANCH  16  19
ENDBRANCH  13  15
BRANCH  13  29
ATOM     29  C8  non d ame      -6.449  10.191  67.948  0.00  0.00    -0.049 C 
ATOM     30  H7  non d ame      -7.384   9.904  67.467  0.00  0.00     0.030 H 
ATOM     31  H8  non d ame      -6.053  11.087  67.466  0.00  0.00     0.030 H 
ATOM     32  H9  non d ame      -5.728   9.380  67.853  0.00  0.00     0.030 H 
ENDBRANCH  13  29
ENDBRANCH  10  13
ENDBRANCH   7   9
BRANCH   7  33
ATOM     33  C11 non d ame      -4.907  14.794  68.050  0.00  0.00    -0.033 C 
ATOM     34  H12 non d ame      -5.264  14.766  67.020  0.00  0.00     0.042 H 
BRANCH  33  35
ATOM     35  C12 non d ame      -4.471  16.261  68.356  0.00  0.00    -0.071 C 
ATOM     36  H13 non d ame      -4.149  16.744  67.433  0.00  0.00     0.028 H 
ATOM     37  H14 non d ame      -5.313  16.810  68.778  0.00  0.00     0.028 H 
ATOM     38  H15 non d ame      -3.649  16.254  69.070  0.00  0.00     0.028 H 
ENDBRANCH  33  35
BRANCH  33  39
ATOM     39  C13 non d ame      -3.701  13.808  68.171  0.00  0.00    -0.071 C 
ATOM     40  H16 non d ame      -3.061  14.117  68.997  0.00  0.00     0.028 H 
ATOM     41  H17 non d ame      -4.072  12.800  68.355  0.00  0.00     0.028 H 
ATOM     42  H18 non d ame      -3.129  13.821  67.244  0.00  0.00     0.028 H 
ENDBRANCH  33  39
ENDBRANCH   7  33
ENDBRANCH   4   7
ENDBRANCH   1   3
BRANCH   1  43
ATOM     43  C15 non d ame      -9.723  15.642  65.872  0.00  0.00     0.240 C 
ATOM     44  O5  non d ame     -10.269  16.329  65.069  0.00  0.00    -0.271 OA
ATOM     45  N6  non d ame      -9.827  14.158  65.771  0.00  0.00    -0.355 N 
ATOM     46  H46 non d ame      -9.364  13.564  66.444  0.00  0.00     0.162 HD
BRANCH  45  47
ATOM     47  C20 non d ame     -10.616  13.552  64.678  0.00  0.00     0.013 C 
ATOM     48  H30 non d ame     -10.936  14.353  64.011  0.00  0.00     0.072 H 
BRANCH  47  49
ATOM     49  C21 non d ame     -11.824  12.852  65.260  0.00  0.00    -0.038 C 
ATOM     50  H31 non d ame     -12.679  13.216  64.690  0.00  0.00     0.036 H 
ATOM     51  H32 non d ame     -11.578  11.790  65.256  0.00  0.00     0.036 H 
BRANCH  49  52
ATOM     52  C22 non d ame     -12.085  13.234  66.733  0.00  0.00     0.018 C 
ATOM     53  H33 non d ame     -11.467  14.112  66.925  0.00  0.00     0.048 H 
ATOM     54  H34 non d ame     -13.169  13.297  66.834  0.00  0.00     0.048 H 
BRANCH  52  55
ATOM     55  C23 non d ame     -11.621  12.155  67.751  0.00  0.00     0.259 C 
ATOM     56  O7  non d ame     -11.727  11.000  67.493  0.00  0.00    -0.265 OA
BRANCH  55  57
ATOM     57  O8  non d ame     -11.081  12.562  69.002  0.00  0.00    -0.317 OA
BRANCH  57  58
ATOM     58  C29 non d ame     -11.217  13.961  69.267  0.00  0.00     0.052 C 
ATOM     59  H47 non d ame     -10.232  14.297  69.590  0.00  0.00     0.082 H 
ATOM     60  H48 non d ame     -11.672  14.388  68.374  0.00  0.00     0.082 H 
BRANCH  58  61
ATOM     61  C35 non d ame     -12.205  14.131  70.451  0.00  0.00    -0.034 A 
ATOM     62  C30 non d ame     -12.616  15.401  70.839  0.00  0.00    -0.075 A 
ATOM     63  C31 non d ame     -13.504  15.554  71.903  0.00  0.00    -0.082 A 
ATOM     64  H49 non d ame     -12.243  16.278  70.311  0.00  0.00     0.084 H 
ATOM     65  C32 non d ame     -13.980  14.428  72.581  0.00  0.00    -0.083 A 
ATOM     66  H50 non d ame     -13.826  16.551  72.203  0.00  0.00     0.083 H 
ATOM     67  C33 non d ame     -13.565  13.162  72.193  0.00  0.00    -0.082 A 
ATOM     68  H51 non d ame     -14.675  14.538  73.414  0.00  0.00     0.083 H 
ATOM     69  C34 non d ame     -12.679  13.005  71.128  0.00  0.00    -0.075 A 
ATOM     70  H52 non d ame     -13.936  12.286  72.725  0.00  0.00     0.083 H 
ATOM     71  H53 non d ame     -12.358  12.007  70.828  0.00  0.00     0.084 H 
ENDBRANCH  58  61
ENDBRANCH  57  58
ENDBRANCH  55  57
ENDBRANCH  52  55
ENDBRANCH  49  52
ENDBRANCH  47  49
BRANCH  47  72
ATOM     72  C24 non d ame      -9.757  12.542  63.921  0.00  0.00    -0.039 C 
ATOM     73  H35 non d ame      -9.991  12.693  62.867  0.00  0.00     0.036 H 
ATOM     74  H36 non d ame      -8.740  12.697  64.280  0.00  0.00     0.036 H 
BRANCH  72  75
ATOM     75  C25 non d ame     -10.160  11.033  64.281  0.00  0.00    -0.001 C 
ATOM     76  C26 non d ame      -9.156  10.448  65.444  0.00  0.00    -0.035 C 
ATOM     77  C27 non d ame      -8.657   9.258  65.032  0.00  0.00     0.085 C 
ATOM     78  H38 non d ame      -8.272  11.080  65.527  0.00  0.00     0.036 H 
ATOM     79  H39 non d ame      -9.727  10.190  66.336  0.00  0.00     0.036 H 
ATOM     80  N5  non d ame      -8.971   9.133  63.561  0.00  0.00    -0.049 N 
ATOM     81  H40 non d ame      -7.577   9.334  65.160  0.00  0.00     0.075 H 
ATOM     82  H41 non d ame      -9.219   8.501  65.579  0.00  0.00     0.075 H 
ATOM     83  C28 non d ame     -10.077  10.267  63.245  0.00  0.00     0.193 C 
ATOM     84  H42 non d ame      -8.122   9.367  63.066  0.00  0.00     0.280 HD
ATOM     85  H43 non d ame      -9.395   8.226  63.434  0.00  0.00     0.280 HD
ATOM     86  H44 non d ame     -11.125   9.996  63.113  0.00  0.00     0.129 H 
ATOM     87  H37 non d ame     -11.231  10.921  64.448  0.00  0.00     0.046 H 
BRANCH  83  88
ATOM     88  O6  non d ame      -9.718  10.990  62.067  0.00  0.00    -0.369 OA
ATOM     89  H45 non d ame     -10.513  11.247  61.594  0.00  0.00     0.212 HD
ENDBRANCH  83  88
ENDBRANCH  72  75
ENDBRANCH  47  72
ENDBRANCH  45  47
ENDBRANCH   1  43
BRANCH   1  90
ATOM     90  C16 non d ame      -8.423  17.675  66.580  0.00  0.00    -0.035 C 
ATOM     91  H21 non d ame      -7.334  17.618  66.576  0.00  0.00     0.037 H 
ATOM     92  H22 non d ame      -8.960  17.885  65.656  0.00  0.00     0.037 H 
BRANCH  90  93
ATOM     93  C17 non d ame      -8.801  18.812  67.581  0.00  0.00    -0.059 C 
ATOM     94  H23 non d ame      -9.053  19.697  66.996  0.00  0.00     0.038 H 
BRANCH  93  95
ATOM     95  C18 non d ame     -10.045  18.444  68.449  0.00  0.00    -0.073 C 
ATOM     96  H24 non d ame      -9.809  17.585  69.078  0.00  0.00     0.028 H 
ATOM     97  H25 non d ame     -10.311  19.292  69.080  0.00  0.00     0.028 H 
ATOM     98  H26 non d ame     -10.884  18.199  67.798  0.00  0.00     0.028 H 
ENDBRANCH  93  95
BRANCH  93  99
ATOM     99  C19 non d ame      -7.607  19.179  68.466  0.00  0.00    -0.073 C 
ATOM    100  H27 non d ame      -6.815  19.605  67.850  0.00  0.00     0.028 H 
ATOM    101  H28 non d ame      -7.919  19.910  69.213  0.00  0.00     0.028 H 
ATOM    102  H29 non d ame      -7.237  18.285  68.966  0.00  0.00     0.028 H 
ENDBRANCH  93  99
ENDBRANCH  90  93
ENDBRANCH   1  90
TORSDOF 26
ENDMDL
MODEL 12
REMARK VINA RESULT:      -6.2      2.345      5.913
REMARK  26 active torsions:
REMARK  status: ('A' for Active; 'I' for Inactive)
REMARK    1  A    between atoms: C2_2  and  C3_3 
REMARK    2  A    between atoms: C4_6  and  C5_7 
REMARK       I    between atoms: C5_7  and  N2_9 
REMARK    3  A    between atoms: N2_9  and  C6_10 
REMARK    4  A    between atoms: C6_10  and  C7_11 
REMARK    5  A    between atoms: C6_10  and  C8_13 
REMARK       I    between atoms: C7_11  and  N3_14 
REMARK    6  A    between atoms: N3_14  and  C9_15 
REMARK    7  A    between atoms: C9_15  and  C10_16 
REMARK    8  A    between atoms: C9_15  and  C11_18 
REMARK       I    between atoms: C10_16  and  N4_21 
REMARK    9  A    between atoms: C11_18  and  C12_19 
REMARK   10  A    between atoms: C11_18  and  C13_20 
REMARK   11  A    between atoms: N4_21  and  C14_22 
REMARK   12  A    between atoms: C14_22  and  C15_23 
REMARK   13  A    between atoms: C14_22  and  C16_25 
REMARK       I    between atoms: C15_23  and  N6_40 
REMARK   14  A    between atoms: C16_25  and  C17_26 
REMARK   15  A    between atoms: C17_26  and  C18_27 
REMARK   16  A    between atoms: C17_26  and  C19_28 
REMARK   17  A    between atoms: C20_29  and  C21_30 
REMARK   18  A    between atoms: C20_29  and  C24_33 
REMARK   19  A    between atoms: C20_29  and  N6_40 
REMARK   20  A    between atoms: C21_30  and  C22_31 
REMARK   21  A    between atoms: C22_31  and  C23_32 
REMARK   22  A    between atoms: C23_32  and  O8_43 
REMARK   23  A    between atoms: C24_33  and  C25_34 
REMARK   24  A    between atoms: C28_38  and  O6_39 
REMARK   25  A    between atoms: C29_42  and  O8_43 
REMARK   26  A    between atoms: C29_42  and  C35_49 
ROOT
ATOM      1  C14 non d ame      -9.578   9.786  67.273  0.00  0.00     0.089 C 
ATOM      2  H20 non d ame      -9.336   9.696  66.214  0.00  0.00     0.087 H 
ENDROOT
BRANCH   1   3
ATOM      3  N4  non d ame      -8.340  10.066  67.984  0.00  0.00    -0.346 N 
ATOM      4  C10 non d ame      -7.056  10.281  67.223  0.00  0.00     0.241 C 
ATOM      5  O4  non d ame      -7.044  10.220  66.037  0.00  0.00    -0.271 OA
ATOM      6  H19 non d ame      -8.371  10.111  68.993  0.00  0.00     0.163 HD
BRANCH   4   7
ATOM      7  C9  non d ame      -5.785  10.576  67.974  0.00  0.00     0.092 C 
ATOM      8  H11 non d ame      -4.974  10.730  67.262  0.00  0.00     0.088 H 
BRANCH   7   9
ATOM      9  N3  non d ame      -5.940  11.824  68.728  0.00  0.00    -0.346 N 
ATOM     10  C7  non d ame      -5.424  13.059  68.192  0.00  0.00     0.240 C 
ATOM     11  O3  non d ame      -4.879  13.067  67.156  0.00  0.00    -0.271 OA
ATOM     12  H10 non d ame      -6.406  11.831  69.624  0.00  0.00     0.163 HD
BRANCH  10  13
ATOM     13  C6  non d ame      -5.590  14.383  69.001  0.00  0.00     0.086 C 
ATOM     14  H6  non d ame      -4.747  15.062  68.876  0.00  0.00     0.086 H 
BRANCH  13  15
ATOM     15  N2  non d ame      -6.766  15.086  68.517  0.00  0.00    -0.343 N 
ATOM     16  C5  non d ame      -6.628  16.058  67.430  0.00  0.00     0.273 C 
ATOM     17  O2  non d ame      -5.567  16.269  66.954  0.00  0.00    -0.266 OA
ATOM     18  H5  non d ame      -7.669  14.903  68.930  0.00  0.00     0.163 HD
BRANCH  16  19
ATOM     19  C4  non d ame      -7.863  16.808  66.906  0.00  0.00     0.154 A 
ATOM     20  C1  non d ame      -8.446  17.998  67.448  0.00  0.00    -0.017 A 
ATOM     21  C2  non d ame      -9.549  18.276  66.610  0.00  0.00     0.077 A 
ATOM     22  H1  non d ame      -8.119  18.572  68.315  0.00  0.00     0.091 H 
ATOM     23  O1  non d ame      -9.586  17.350  65.697  0.00  0.00    -0.218 OA
ATOM     24  N1  non d ame      -8.612  16.481  65.850  0.00  0.00    -0.123 NA
BRANCH  21  25
ATOM     25  C3  non d ame     -10.514  19.445  66.750  0.00  0.00    -0.029 C 
ATOM     26  H2  non d ame      -9.986  20.307  67.160  0.00  0.00     0.036 H 
ATOM     27  H3  non d ame     -10.919  19.700  65.771  0.00  0.00     0.036 H 
ATOM     28  H4  non d ame     -11.330  19.167  67.418  0.00  0.00     0.036 H 
ENDBRANCH  21  25
ENDBRANCH  16  19
ENDBRANCH  13  15
BRANCH  13  29
ATOM     29  C8  non d ame      -5.747  14.064  70.466  0.00  0.00    -0.049 C 
ATOM     30  H7  non d ame      -4.953  13.384  70.778  0.00  0.00     0.030 H 
ATOM     31  H8  non d ame      -5.684  14.986  71.047  0.00  0.00     0.030 H 
ATOM     32  H9  non d ame      -6.714  13.593  70.635  0.00  0.00     0.030 H 
ENDBRANCH  13  29
ENDBRANCH  10  13
ENDBRANCH   7   9
BRANCH   7  33
ATOM     33  C11 non d ame      -5.483   9.410  68.961  0.00  0.00    -0.033 C 
ATOM     34  H12 non d ame      -6.439   8.989  69.274  0.00  0.00     0.042 H 
BRANCH  33  35
ATOM     35  C12 non d ame      -4.674   8.271  68.266  0.00  0.00    -0.071 C 
ATOM     36  H13 non d ame      -4.630   7.404  68.924  0.00  0.00     0.028 H 
ATOM     37  H14 non d ame      -5.165   7.994  67.333  0.00  0.00     0.028 H 
ATOM     38  H15 non d ame      -3.664   8.621  68.055  0.00  0.00     0.028 H 
ENDBRANCH  33  35
BRANCH  33  39
ATOM     39  C13 non d ame      -4.745   9.933  70.235  0.00  0.00    -0.071 C 
ATOM     40  H16 non d ame      -3.986  10.658  69.943  0.00  0.00     0.028 H 
ATOM     41  H17 non d ame      -5.464  10.408  70.903  0.00  0.00     0.028 H 
ATOM     42  H18 non d ame      -4.270   9.097  70.747  0.00  0.00     0.028 H 
ENDBRANCH  33  39
ENDBRANCH   7  33
ENDBRANCH   4   7
ENDBRANCH   1   3
BRANCH   1  43
ATOM     43  C15 non d ame     -10.581  10.943  67.550  0.00  0.00     0.240 C 
ATOM     44  O5  non d ame     -11.711  10.692  67.825  0.00  0.00    -0.271 OA
ATOM     45  N6  non d ame     -10.132  12.362  67.481  0.00  0.00    -0.355 N 
ATOM     46  H46 non d ame      -9.175  12.587  67.253  0.00  0.00     0.162 HD
BRANCH  45  47
ATOM     47  C20 non d ame     -11.098  13.450  67.749  0.00  0.00     0.013 C 
ATOM     48  H30 non d ame     -11.900  13.042  68.364  0.00  0.00     0.072 H 
BRANCH  47  49
ATOM     49  C21 non d ame     -11.658  13.955  66.438  0.00  0.00    -0.038 C 
ATOM     50  H31 non d ame     -12.561  13.371  66.259  0.00  0.00     0.036 H 
ATOM     51  H32 non d ame     -11.721  15.039  66.544  0.00  0.00     0.036 H 
BRANCH  49  52
ATOM     52  C22 non d ame     -10.719  13.688  65.242  0.00  0.00     0.018 C 
ATOM     53  H33 non d ame     -10.256  14.647  65.009  0.00  0.00     0.048 H 
ATOM     54  H34 non d ame     -10.099  12.841  65.537  0.00  0.00     0.048 H 
BRANCH  52  55
ATOM     55  C23 non d ame     -11.462  13.246  63.950  0.00  0.00     0.259 C 
ATOM     56  O7  non d ame     -12.440  13.818  63.593  0.00  0.00    -0.265 OA
BRANCH  55  57
ATOM     57  O8  non d ame     -10.967  12.141  63.204  0.00  0.00    -0.317 OA
BRANCH  57  58
ATOM     58  C29 non d ame     -10.497  11.057  64.011  0.00  0.00     0.052 C 
ATOM     59  H47 non d ame     -10.083  11.514  64.908  0.00  0.00     0.082 H 
ATOM     60  H48 non d ame     -11.334  10.364  64.089  0.00  0.00     0.082 H 
BRANCH  58  61
ATOM     61  C35 non d ame      -9.347  10.353  63.242  0.00  0.00    -0.034 A 
ATOM     62  C30 non d ame      -8.982   9.052  63.574  0.00  0.00    -0.075 A 
ATOM     63  C31 non d ame      -7.949   8.419  62.884  0.00  0.00    -0.082 A 
ATOM     64  H49 non d ame      -9.504   8.529  64.374  0.00  0.00     0.084 H 
ATOM     65  C32 non d ame      -7.279   9.093  61.860  0.00  0.00    -0.083 A 
ATOM     66  H50 non d ame      -7.667   7.400  63.146  0.00  0.00     0.083 H 
ATOM     67  C33 non d ame      -7.644  10.392  61.534  0.00  0.00    -0.082 A 
ATOM     68  H51 non d ame      -6.470   8.606  61.315  0.00  0.00     0.083 H 
ATOM     69  C34 non d ame      -8.678  11.028  62.220  0.00  0.00    -0.075 A 
ATOM     70  H52 non d ame      -7.118  10.916  60.736  0.00  0.00     0.083 H 
ATOM     71  H53 non d ame      -8.960  12.048  61.957  0.00  0.00     0.084 H 
ENDBRANCH  58  61
ENDBRANCH  57  58
ENDBRANCH  55  57
ENDBRANCH  52  55
ENDBRANCH  49  52
ENDBRANCH  47  49
BRANCH  47  72
ATOM     72  C24 non d ame     -10.398  14.594  68.479  0.00  0.00    -0.039 C 
ATOM     73  H35 non d ame      -9.359  14.279  68.583  0.00  0.00     0.036 H 
ATOM     74  H36 non d ame     -10.640  15.493  67.911  0.00  0.00     0.036 H 
BRANCH  72  75
ATOM     75  C25 non d ame     -10.980  14.798  69.957  0.00  0.00    -0.001 C 
ATOM     76  C26 non d ame     -11.985  13.554  70.341  0.00  0.00    -0.035 C 
ATOM     77  C27 non d ame     -13.159  14.062  70.784  0.00  0.00     0.085 C 
ATOM     78  H38 non d ame     -12.268  13.011  69.439  0.00  0.00     0.036 H 
ATOM     79  H39 non d ame     -11.599  13.013  71.204  0.00  0.00     0.036 H 
ATOM     80  N5  non d ame     -13.166  15.530  70.433  0.00  0.00    -0.049 N 
ATOM     81  H40 non d ame     -13.934  13.555  70.209  0.00  0.00     0.075 H 
ATOM     82  H41 non d ame     -13.130  13.958  71.869  0.00  0.00     0.075 H 
ATOM     83  C28 non d ame     -11.642  15.903  70.050  0.00  0.00     0.193 C 
ATOM     84  H42 non d ame     -13.738  15.624  69.605  0.00  0.00     0.280 HD
ATOM     85  H43 non d ame     -13.416  16.026  71.276  0.00  0.00     0.280 HD
ATOM     86  H44 non d ame     -11.014  16.453  70.751  0.00  0.00     0.129 H 
ATOM     87  H37 non d ame     -10.201  15.045  70.677  0.00  0.00     0.046 H 
BRANCH  83  88
ATOM     88  O6  non d ame     -11.610  16.655  68.836  0.00  0.00    -0.369 OA
ATOM     89  H45 non d ame     -11.836  17.569  69.020  0.00  0.00     0.212 HD
ENDBRANCH  83  88
ENDBRANCH  72  75
ENDBRANCH  47  72
ENDBRANCH  45  47
ENDBRANCH   1  43
BRANCH   1  90
ATOM     90  C16 non d ame     -10.157   8.475  67.781  0.00  0.00    -0.035 C 
ATOM     91  H21 non d ame      -9.562   8.217  68.658  0.00  0.00     0.037 H 
ATOM     92  H22 non d ame     -11.227   8.652  67.883  0.00  0.00     0.037 H 
BRANCH  90  93
ATOM     93  C17 non d ame      -9.999   7.289  66.778  0.00  0.00    -0.059 C 
ATOM     94  H23 non d ame     -10.361   7.628  65.807  0.00  0.00     0.038 H 
BRANCH  93  95
ATOM     95  C18 non d ame      -8.509   6.855  66.607  0.00  0.00    -0.073 C 
ATOM     96  H24 non d ame      -8.332   5.935  67.164  0.00  0.00     0.028 H 
ATOM     97  H25 non d ame      -8.299   6.685  65.551  0.00  0.00     0.028 H 
ATOM     98  H26 non d ame      -7.855   7.641  66.984  0.00  0.00     0.028 H 
ENDBRANCH  93  95
BRANCH  93  99
ATOM     99  C19 non d ame     -10.868   6.100  67.196  0.00  0.00    -0.073 C 
ATOM    100  H27 non d ame     -11.502   6.391  68.034  0.00  0.00     0.028 H 
ATOM    101  H28 non d ame     -11.493   5.794  66.357  0.00  0.00     0.028 H 
ATOM    102  H29 non d ame     -10.229   5.270  67.495  0.00  0.00     0.028 H 
ENDBRANCH  93  99
ENDBRANCH  90  93
ENDBRANCH   1  90
TORSDOF 26
ENDMDL
MODEL 13
REMARK VINA RESULT:      -6.2      3.473      6.751
REMARK  26 active torsions:
REMARK  status: ('A' for Active; 'I' for Inactive)
REMARK    1  A    between atoms: C2_2  and  C3_3 
REMARK    2  A    between atoms: C4_6  and  C5_7 
REMARK       I    between atoms: C5_7  and  N2_9 
REMARK    3  A    between atoms: N2_9  and  C6_10 
REMARK    4  A    between atoms: C6_10  and  C7_11 
REMARK    5  A    between atoms: C6_10  and  C8_13 
REMARK       I    between atoms: C7_11  and  N3_14 
REMARK    6  A    between atoms: N3_14  and  C9_15 
REMARK    7  A    between atoms: C9_15  and  C10_16 
REMARK    8  A    between atoms: C9_15  and  C11_18 
REMARK       I    between atoms: C10_16  and  N4_21 
REMARK    9  A    between atoms: C11_18  and  C12_19 
REMARK   10  A    between atoms: C11_18  and  C13_20 
REMARK   11  A    between atoms: N4_21  and  C14_22 
REMARK   12  A    between atoms: C14_22  and  C15_23 
REMARK   13  A    between atoms: C14_22  and  C16_25 
REMARK       I    between atoms: C15_23  and  N6_40 
REMARK   14  A    between atoms: C16_25  and  C17_26 
REMARK   15  A    between atoms: C17_26  and  C18_27 
REMARK   16  A    between atoms: C17_26  and  C19_28 
REMARK   17  A    between atoms: C20_29  and  C21_30 
REMARK   18  A    between atoms: C20_29  and  C24_33 
REMARK   19  A    between atoms: C20_29  and  N6_40 
REMARK   20  A    between atoms: C21_30  and  C22_31 
REMARK   21  A    between atoms: C22_31  and  C23_32 
REMARK   22  A    between atoms: C23_32  and  O8_43 
REMARK   23  A    between atoms: C24_33  and  C25_34 
REMARK   24  A    between atoms: C28_38  and  O6_39 
REMARK   25  A    between atoms: C29_42  and  O8_43 
REMARK   26  A    between atoms: C29_42  and  C35_49 
ROOT
ATOM      1  C14 non d ame     -10.737   8.771  69.400  0.00  0.00     0.089 C 
ATOM      2  H20 non d ame     -11.766   8.413  69.368  0.00  0.00     0.087 H 
ENDROOT
BRANCH   1   3
ATOM      3  N4  non d ame      -9.865   7.614  69.256  0.00  0.00    -0.346 N 
ATOM      4  C10 non d ame     -10.439   6.220  69.282  0.00  0.00     0.241 C 
ATOM      5  O4  non d ame     -11.606   6.054  69.422  0.00  0.00    -0.271 OA
ATOM      6  H19 non d ame      -8.875   7.777  69.141  0.00  0.00     0.163 HD
BRANCH   4   7
ATOM      7  C9  non d ame      -9.524   5.035  69.127  0.00  0.00     0.092 C 
ATOM      8  H11 non d ame     -10.075   4.212  68.672  0.00  0.00     0.088 H 
BRANCH   7   9
ATOM      9  N3  non d ame      -8.430   5.378  68.213  0.00  0.00    -0.346 N 
ATOM     10  C7  non d ame      -8.461   4.923  66.845  0.00  0.00     0.240 C 
ATOM     11  O3  non d ame      -9.360   4.276  66.463  0.00  0.00    -0.271 OA
ATOM     12  H10 non d ame      -7.647   5.933  68.529  0.00  0.00     0.163 HD
BRANCH  10  13
ATOM     13  C6  non d ame      -7.293   5.289  65.880  0.00  0.00     0.086 C 
ATOM     14  H6  non d ame      -7.116   4.526  65.121  0.00  0.00     0.086 H 
BRANCH  13  15
ATOM     15  N2  non d ame      -7.634   6.510  65.169  0.00  0.00    -0.343 N 
ATOM     16  C5  non d ame      -7.136   6.714  63.807  0.00  0.00     0.273 C 
ATOM     17  O2  non d ame      -6.460   5.892  63.293  0.00  0.00    -0.266 OA
ATOM     18  H5  non d ame      -8.210   7.208  65.616  0.00  0.00     0.163 HD
BRANCH  16  19
ATOM     19  C4  non d ame      -7.491   8.000  63.042  0.00  0.00     0.154 A 
ATOM     20  C1  non d ame      -6.637   9.121  62.794  0.00  0.00    -0.017 A 
ATOM     21  C2  non d ame      -7.432  10.028  62.059  0.00  0.00     0.077 A 
ATOM     22  H1  non d ame      -5.599   9.257  63.100  0.00  0.00     0.091 H 
ATOM     23  O1  non d ame      -8.603   9.481  61.906  0.00  0.00    -0.218 OA
ATOM     24  N1  non d ame      -8.662   8.297  62.472  0.00  0.00    -0.123 NA
BRANCH  21  25
ATOM     25  C3  non d ame      -6.998  11.391  61.539  0.00  0.00    -0.029 C 
ATOM     26  H2  non d ame      -7.128  11.427  60.456  0.00  0.00     0.036 H 
ATOM     27  H3  non d ame      -7.607  12.168  62.003  0.00  0.00     0.036 H 
ATOM     28  H4  non d ame      -5.949  11.558  61.784  0.00  0.00     0.036 H 
ENDBRANCH  21  25
ENDBRANCH  16  19
ENDBRANCH  13  15
BRANCH  13  29
ATOM     29  C8  non d ame      -6.026   5.490  66.672  0.00  0.00    -0.049 C 
ATOM     30  H7  non d ame      -6.274   5.645  67.722  0.00  0.00     0.030 H 
ATOM     31  H8  non d ame      -5.393   4.607  66.575  0.00  0.00     0.030 H 
ATOM     32  H9  non d ame      -5.495   6.362  66.292  0.00  0.00     0.030 H 
ENDBRANCH  13  29
ENDBRANCH  10  13
ENDBRANCH   7   9
BRANCH   7  33
ATOM     33  C11 non d ame      -8.935   4.648  70.515  0.00  0.00    -0.033 C 
ATOM     34  H12 non d ame      -9.382   5.310  71.257  0.00  0.00     0.042 H 
BRANCH  33  35
ATOM     35  C12 non d ame      -9.312   3.184  70.904  0.00  0.00    -0.071 C 
ATOM     36  H13 non d ame     -10.326   2.969  70.568  0.00  0.00     0.028 H 
ATOM     37  H14 non d ame      -8.617   2.492  70.430  0.00  0.00     0.028 H 
ATOM     38  H15 non d ame      -9.255   3.071  71.986  0.00  0.00     0.028 H 
ENDBRANCH  33  35
BRANCH  33  39
ATOM     39  C13 non d ame      -7.388   4.862  70.545  0.00  0.00    -0.071 C 
ATOM     40  H16 non d ame      -6.965   4.339  71.402  0.00  0.00     0.028 H 
ATOM     41  H17 non d ame      -6.948   4.470  69.627  0.00  0.00     0.028 H 
ATOM     42  H18 non d ame      -7.171   5.927  70.626  0.00  0.00     0.028 H 
ENDBRANCH  33  39
ENDBRANCH   7  33
ENDBRANCH   4   7
ENDBRANCH   1   3
BRANCH   1  43
ATOM     43  C15 non d ame     -10.427   9.771  68.250  0.00  0.00     0.240 C 
ATOM     44  O5  non d ame     -10.263   9.367  67.143  0.00  0.00    -0.271 OA
ATOM     45  N6  non d ame     -10.342  11.233  68.524  0.00  0.00    -0.355 N 
ATOM     46  H46 non d ame     -10.483  11.589  69.459  0.00  0.00     0.162 HD
BRANCH  45  47
ATOM     47  C20 non d ame     -10.047  12.171  67.420  0.00  0.00     0.013 C 
ATOM     48  H30 non d ame      -9.470  11.632  66.668  0.00  0.00     0.072 H 
BRANCH  47  49
ATOM     49  C21 non d ame      -9.241  13.334  67.952  0.00  0.00    -0.038 C 
ATOM     50  H31 non d ame      -9.570  13.474  68.982  0.00  0.00     0.036 H 
ATOM     51  H32 non d ame      -8.199  13.092  67.740  0.00  0.00     0.036 H 
BRANCH  49  52
ATOM     52  C22 non d ame      -9.539  14.657  67.215  0.00  0.00     0.018 C 
ATOM     53  H33 non d ame      -8.939  14.631  66.305  0.00  0.00     0.048 H 
ATOM     54  H34 non d ame     -10.626  14.721  67.149  0.00  0.00     0.048 H 
BRANCH  52  55
ATOM     55  C23 non d ame      -9.082  15.923  67.992  0.00  0.00     0.259 C 
ATOM     56  O7  non d ame      -8.092  16.499  67.675  0.00  0.00    -0.265 OA
BRANCH  55  57
ATOM     57  O8  non d ame      -9.852  16.380  69.096  0.00  0.00    -0.317 OA
BRANCH  57  58
ATOM     58  C29 non d ame     -11.265  16.239  68.920  0.00  0.00     0.052 C 
ATOM     59  H47 non d ame     -11.661  17.253  68.889  0.00  0.00     0.082 H 
ATOM     60  H48 non d ame     -11.390  15.579  68.062  0.00  0.00     0.082 H 
BRANCH  58  61
ATOM     61  C35 non d ame     -11.835  15.527  70.175  0.00  0.00    -0.034 A 
ATOM     62  C30 non d ame     -11.944  16.216  71.378  0.00  0.00    -0.075 A 
ATOM     63  C31 non d ame     -12.456  15.577  72.506  0.00  0.00    -0.082 A 
ATOM     64  H49 non d ame     -11.628  17.257  71.438  0.00  0.00     0.084 H 
ATOM     65  C32 non d ame     -12.858  14.240  72.428  0.00  0.00    -0.083 A 
ATOM     66  H50 non d ame     -12.541  16.120  73.447  0.00  0.00     0.083 H 
ATOM     67  C33 non d ame     -12.744  13.555  71.226  0.00  0.00    -0.082 A 
ATOM     68  H51 non d ame     -13.259  13.732  73.305  0.00  0.00     0.083 H 
ATOM     69  C34 non d ame     -12.235  14.192  70.096  0.00  0.00    -0.075 A 
ATOM     70  H52 non d ame     -13.056  12.512  71.169  0.00  0.00     0.083 H 
ATOM     71  H53 non d ame     -12.150  13.646  69.155  0.00  0.00     0.084 H 
ENDBRANCH  58  61
ENDBRANCH  57  58
ENDBRANCH  55  57
ENDBRANCH  52  55
ENDBRANCH  49  52
ENDBRANCH  47  49
BRANCH  47  72
ATOM     72  C24 non d ame     -11.352  12.687  66.818  0.00  0.00    -0.039 C 
ATOM     73  H35 non d ame     -12.126  12.436  67.544  0.00  0.00     0.036 H 
ATOM     74  H36 non d ame     -11.162  13.730  66.563  0.00  0.00     0.036 H 
BRANCH  72  75
ATOM     75  C25 non d ame     -11.718  11.927  65.456  0.00  0.00    -0.001 C 
ATOM     76  C26 non d ame     -10.343  11.546  64.639  0.00  0.00    -0.035 C 
ATOM     77  C27 non d ame     -10.457  11.986  63.364  0.00  0.00     0.085 C 
ATOM     78  H38 non d ame      -9.504  12.120  65.033  0.00  0.00     0.036 H 
ATOM     79  H39 non d ame     -10.260  10.464  64.530  0.00  0.00     0.036 H 
ATOM     80  N5  non d ame     -11.644  12.917  63.322  0.00  0.00    -0.049 N 
ATOM     81  H40 non d ame      -9.549  12.558  63.170  0.00  0.00     0.075 H 
ATOM     82  H41 non d ame     -10.680  11.100  62.769  0.00  0.00     0.075 H 
ATOM     83  C28 non d ame     -12.456  12.663  64.694  0.00  0.00     0.193 C 
ATOM     84  H42 non d ame     -11.272  13.856  63.338  0.00  0.00     0.280 HD
ATOM     85  H43 non d ame     -12.218  12.616  62.548  0.00  0.00     0.280 HD
ATOM     86  H44 non d ame     -13.380  12.084  64.691  0.00  0.00     0.129 H 
ATOM     87  H37 non d ame     -12.440  11.126  65.612  0.00  0.00     0.046 H 
BRANCH  83  88
ATOM     88  O6  non d ame     -12.789  13.910  65.307  0.00  0.00    -0.369 OA
ATOM     89  H45 non d ame     -12.511  14.630  64.738  0.00  0.00     0.212 HD
ENDBRANCH  83  88
ENDBRANCH  72  75
ENDBRANCH  47  72
ENDBRANCH  45  47
ENDBRANCH   1  43
BRANCH   1  90
ATOM     90  C16 non d ame     -10.465   9.434  70.741  0.00  0.00    -0.035 C 
ATOM     91  H21 non d ame      -9.642   8.870  71.180  0.00  0.00     0.037 H 
ATOM     92  H22 non d ame     -10.342  10.494  70.519  0.00  0.00     0.037 H 
BRANCH  90  93
ATOM     93  C17 non d ame     -11.656   9.328  71.745  0.00  0.00    -0.059 C 
ATOM     94  H23 non d ame     -11.416   9.948  72.610  0.00  0.00     0.038 H 
BRANCH  93  95
ATOM     95  C18 non d ame     -12.992   9.859  71.135  0.00  0.00    -0.073 C 
ATOM     96  H24 non d ame     -13.538   9.032  70.681  0.00  0.00     0.028 H 
ATOM     97  H25 non d ame     -13.599  10.306  71.922  0.00  0.00     0.028 H 
ATOM     98  H26 non d ame     -12.772  10.610  70.376  0.00  0.00     0.028 H 
ENDBRANCH  93  95
BRANCH  93  99
ATOM     99  C19 non d ame     -11.820   7.891  72.249  0.00  0.00    -0.073 C 
ATOM    100  H27 non d ame     -11.139   7.237  71.705  0.00  0.00     0.028 H 
ATOM    101  H28 non d ame     -11.590   7.851  73.314  0.00  0.00     0.028 H 
ATOM    102  H29 non d ame     -12.846   7.564  72.085  0.00  0.00     0.028 H 
ENDBRANCH  93  99
ENDBRANCH  90  93
ENDBRANCH   1  90
TORSDOF 26
ENDMDL
