MODEL 1
REMARK VINA RESULT:      -7.6      0.000      0.000
REMARK  26 active torsions:
REMARK  status: ('A' for Active; 'I' for Inactive)
REMARK    1  A    between atoms: C2_2  and  C3_3 
REMARK    2  A    between atoms: C4_6  and  C5_7 
REMARK       I    between atoms: C5_7  and  N2_9 
REMARK    3  A    between atoms: N2_9  and  C6_10 
REMARK    4  A    between atoms: C6_10  and  C7_11 
REMARK    5  A    between atoms: C6_10  and  C8_13 
REMARK       I    between atoms: C7_11  and  N3_14 
REMARK    6  A    between atoms: N3_14  and  C9_15 
REMARK    7  A    between atoms: C9_15  and  C10_16 
REMARK    8  A    between atoms: C9_15  and  C11_18 
REMARK       I    between atoms: C10_16  and  N4_21 
REMARK    9  A    between atoms: C11_18  and  C12_19 
REMARK   10  A    between atoms: C11_18  and  C13_20 
REMARK   11  A    between atoms: N4_21  and  C14_22 
REMARK   12  A    between atoms: C14_22  and  C15_23 
REMARK   13  A    between atoms: C14_22  and  C16_25 
REMARK       I    between atoms: C15_23  and  N6_40 
REMARK   14  A    between atoms: C16_25  and  C17_26 
REMARK   15  A    between atoms: C17_26  and  C18_27 
REMARK   16  A    between atoms: C17_26  and  C19_28 
REMARK   17  A    between atoms: C20_29  and  C21_30 
REMARK   18  A    between atoms: C20_29  and  C24_33 
REMARK   19  A    between atoms: C20_29  and  N6_40 
REMARK   20  A    between atoms: C21_30  and  C22_31 
REMARK   21  A    between atoms: C22_31  and  C23_32 
REMARK   22  A    between atoms: C23_32  and  O8_43 
REMARK   23  A    between atoms: C24_33  and  C25_34 
REMARK   24  A    between atoms: C28_38  and  O6_39 
REMARK   25  A    between atoms: C29_42  and  O8_43 
REMARK   26  A    between atoms: C29_42  and  C35_49 
ROOT
ATOM      1  C14 non d ame      -9.257   7.009  66.373  0.00  0.00     0.089 C 
ATOM      2  H20 non d ame      -9.727   6.480  65.544  0.00  0.00     0.087 H 
ENDROOT
BRANCH   1   3
ATOM      3  N4  non d ame      -8.863   8.323  65.887  0.00  0.00    -0.346 N 
ATOM      4  C10 non d ame      -8.260   8.478  64.513  0.00  0.00     0.241 C 
ATOM      5  O4  non d ame      -8.101   7.529  63.817  0.00  0.00    -0.271 OA
ATOM      6  H19 non d ame      -9.005   9.117  66.496  0.00  0.00     0.163 HD
BRANCH   4   7
ATOM      7  C9  non d ame      -7.863   9.846  64.025  0.00  0.00     0.092 C 
ATOM      8  H11 non d ame      -7.945   9.876  62.938  0.00  0.00     0.088 H 
BRANCH   7   9
ATOM      9  N3  non d ame      -8.794  10.845  64.557  0.00  0.00    -0.346 N 
ATOM     10  C7  non d ame      -9.851  11.362  63.724  0.00  0.00     0.240 C 
ATOM     11  O3  non d ame      -9.966  10.986  62.621  0.00  0.00    -0.271 OA
ATOM     12  H10 non d ame      -8.705  11.180  65.505  0.00  0.00     0.163 HD
BRANCH  10  13
ATOM     13  C6  non d ame     -10.836  12.428  64.295  0.00  0.00     0.086 C 
ATOM     14  H6  non d ame     -11.258  12.140  65.258  0.00  0.00     0.086 H 
BRANCH  13  15
ATOM     15  N2  non d ame     -10.112  13.669  64.514  0.00  0.00    -0.343 N 
ATOM     16  C5  non d ame     -10.593  14.617  65.523  0.00  0.00     0.273 C 
ATOM     17  O2  non d ame     -11.564  14.372  66.150  0.00  0.00    -0.266 OA
ATOM     18  H5  non d ame      -9.285  13.872  63.972  0.00  0.00     0.163 HD
BRANCH  16  19
ATOM     19  C4  non d ame      -9.836  15.932  65.766  0.00  0.00     0.154 A 
ATOM     20  C1  non d ame      -8.499  16.082  66.253  0.00  0.00    -0.017 A 
ATOM     21  C2  non d ame      -8.282  17.477  66.297  0.00  0.00     0.077 A 
ATOM     22  H1  non d ame      -7.793  15.299  66.533  0.00  0.00     0.091 H 
ATOM     23  O1  non d ame      -9.373  18.052  65.880  0.00  0.00    -0.218 OA
ATOM     24  N1  non d ame     -10.294  17.170  65.565  0.00  0.00    -0.123 NA
BRANCH  21  25
ATOM     25  C3  non d ame      -7.008  18.178  66.746  0.00  0.00    -0.029 C 
ATOM     26  H2  non d ame      -6.431  18.482  65.871  0.00  0.00     0.036 H 
ATOM     27  H3  non d ame      -7.265  19.059  67.334  0.00  0.00     0.036 H 
ATOM     28  H4  non d ame      -6.412  17.497  67.355  0.00  0.00     0.036 H 
ENDBRANCH  21  25
ENDBRANCH  16  19
ENDBRANCH  13  15
BRANCH  13  29
ATOM     29  C8  non d ame     -11.961  12.653  63.317  0.00  0.00    -0.049 C 
ATOM     30  H7  non d ame     -12.905  12.358  63.775  0.00  0.00     0.030 H 
ATOM     31  H8  non d ame     -12.002  13.710  63.048  0.00  0.00     0.030 H 
ATOM     32  H9  non d ame     -11.789  12.057  62.422  0.00  0.00     0.030 H 
ENDBRANCH  13  29
ENDBRANCH  10  13
ENDBRANCH   7   9
BRANCH   7  33
ATOM     33  C11 non d ame      -6.420  10.172  64.512  0.00  0.00    -0.033 C 
ATOM     34  H12 non d ame      -6.456  11.135  65.022  0.00  0.00     0.042 H 
BRANCH  33  35
ATOM     35  C12 non d ame      -5.916   9.114  65.542  0.00  0.00    -0.071 C 
ATOM     36  H13 non d ame      -4.854   9.271  65.732  0.00  0.00     0.028 H 
ATOM     37  H14 non d ame      -6.471   9.221  66.474  0.00  0.00     0.028 H 
ATOM     38  H15 non d ame      -6.070   8.114  65.140  0.00  0.00     0.028 H 
ENDBRANCH  33  35
BRANCH  33  39
ATOM     39  C13 non d ame      -5.438  10.300  63.304  0.00  0.00    -0.071 C 
ATOM     40  H16 non d ame      -4.523   9.749  63.520  0.00  0.00     0.028 H 
ATOM     41  H17 non d ame      -5.907   9.892  62.408  0.00  0.00     0.028 H 
ATOM     42  H18 non d ame      -5.199  11.351  63.142  0.00  0.00     0.028 H 
ENDBRANCH  33  39
ENDBRANCH   7  33
ENDBRANCH   4   7
ENDBRANCH   1   3
BRANCH   1  43
ATOM     43  C15 non d ame     -10.227   7.196  67.575  0.00  0.00     0.240 C 
ATOM     44  O5  non d ame     -11.234   6.566  67.626  0.00  0.00    -0.271 OA
ATOM     45  N6  non d ame      -9.896   8.154  68.668  0.00  0.00    -0.355 N 
ATOM     46  H46 non d ame      -9.042   8.692  68.637  0.00  0.00     0.162 HD
BRANCH  45  47
ATOM     47  C20 non d ame     -10.828   8.320  69.804  0.00  0.00     0.013 C 
ATOM     48  H30 non d ame     -11.837   8.121  69.442  0.00  0.00     0.072 H 
BRANCH  47  49
ATOM     49  C21 non d ame     -10.736   9.737  70.324  0.00  0.00    -0.038 C 
ATOM     50  H31 non d ame     -10.692   9.650  71.410  0.00  0.00     0.036 H 
ATOM     51  H32 non d ame      -9.911  10.197  69.779  0.00  0.00     0.036 H 
BRANCH  49  52
ATOM     52  C22 non d ame     -11.992  10.575  70.003  0.00  0.00     0.018 C 
ATOM     53  H33 non d ame     -12.714   9.877  69.577  0.00  0.00     0.048 H 
ATOM     54  H34 non d ame     -12.231  11.113  70.921  0.00  0.00     0.048 H 
BRANCH  52  55
ATOM     55  C23 non d ame     -11.758  11.662  68.918  0.00  0.00     0.259 C 
ATOM     56  O7  non d ame     -12.020  11.444  67.780  0.00  0.00    -0.265 OA
BRANCH  55  57
ATOM     57  O8  non d ame     -11.213  12.920  69.296  0.00  0.00    -0.317 OA
BRANCH  57  58
ATOM     58  C29 non d ame     -12.150  14.000  69.251  0.00  0.00     0.052 C 
ATOM     59  H47 non d ame     -11.672  14.781  68.661  0.00  0.00     0.082 H 
ATOM     60  H48 non d ame     -13.089  13.561  68.915  0.00  0.00     0.082 H 
BRANCH  58  61
ATOM     61  C35 non d ame     -12.344  14.526  70.698  0.00  0.00    -0.034 A 
ATOM     62  C30 non d ame     -11.783  15.740  71.079  0.00  0.00    -0.075 A 
ATOM     63  C31 non d ame     -11.957  16.213  72.379  0.00  0.00    -0.082 A 
ATOM     64  H49 non d ame     -11.206  16.321  70.360  0.00  0.00     0.084 H 
ATOM     65  C32 non d ame     -12.696  15.465  73.300  0.00  0.00    -0.083 A 
ATOM     66  H50 non d ame     -11.518  17.165  72.674  0.00  0.00     0.083 H 
ATOM     67  C33 non d ame     -13.252  14.252  72.916  0.00  0.00    -0.082 A 
ATOM     68  H51 non d ame     -12.837  15.827  74.318  0.00  0.00     0.083 H 
ATOM     69  C34 non d ame     -13.081  13.777  71.617  0.00  0.00    -0.075 A 
ATOM     70  H52 non d ame     -13.825  13.669  73.638  0.00  0.00     0.083 H 
ATOM     71  H53 non d ame     -13.523  12.823  71.323  0.00  0.00     0.084 H 
ENDBRANCH  58  61
ENDBRANCH  57  58
ENDBRANCH  55  57
ENDBRANCH  52  55
ENDBRANCH  49  52
ENDBRANCH  47  49
BRANCH  47  72
ATOM     72  C24 non d ame     -10.461   7.343  70.918  0.00  0.00    -0.039 C 
ATOM     73  H35 non d ame     -11.305   6.657  70.994  0.00  0.00     0.036 H 
ATOM     74  H36 non d ame      -9.472   6.963  70.658  0.00  0.00     0.036 H 
BRANCH  72  75
ATOM     75  C25 non d ame     -10.325   8.082  72.334  0.00  0.00    -0.001 C 
ATOM     76  C26 non d ame      -8.745   8.145  72.784  0.00  0.00    -0.035 C 
ATOM     77  C27 non d ame      -8.631   7.664  74.045  0.00  0.00     0.085 C 
ATOM     78  H38 non d ame      -8.159   7.443  72.191  0.00  0.00     0.036 H 
ATOM     79  H39 non d ame      -8.423   9.182  72.877  0.00  0.00     0.036 H 
ATOM     80  N5  non d ame      -9.934   6.977  74.376  0.00  0.00    -0.049 N 
ATOM     81  H40 non d ame      -7.837   6.918  74.003  0.00  0.00     0.075 H 
ATOM     82  H41 non d ame      -8.521   8.542  74.682  0.00  0.00     0.075 H 
ATOM     83  C28 non d ame     -10.988   7.459  73.251  0.00  0.00     0.193 C 
ATOM     84  H42 non d ame      -9.773   5.987  74.261  0.00  0.00     0.280 HD
ATOM     85  H43 non d ame     -10.230   7.340  75.270  0.00  0.00     0.280 HD
ATOM     86  H44 non d ame     -11.748   8.205  73.488  0.00  0.00     0.129 H 
ATOM     87  H37 non d ame     -10.888   9.014  72.368  0.00  0.00     0.046 H 
BRANCH  83  88
ATOM     88  O6  non d ame     -11.703   6.337  72.733  0.00  0.00    -0.369 OA
ATOM     89  H45 non d ame     -12.444   6.137  73.308  0.00  0.00     0.212 HD
ENDBRANCH  83  88
ENDBRANCH  72  75
ENDBRANCH  47  72
ENDBRANCH  45  47
ENDBRANCH   1  43
BRANCH   1  90
ATOM     90  C16 non d ame      -8.018   6.255  66.828  0.00  0.00    -0.035 C 
ATOM     91  H21 non d ame      -7.174   6.868  66.511  0.00  0.00     0.037 H 
ATOM     92  H22 non d ame      -8.176   6.053  67.887  0.00  0.00     0.037 H 
BRANCH  90  93
ATOM     93  C17 non d ame      -7.839   4.867  66.135  0.00  0.00    -0.059 C 
ATOM     94  H23 non d ame      -7.030   4.961  65.411  0.00  0.00     0.038 H 
BRANCH  93  95
ATOM     95  C18 non d ame      -7.444   3.747  67.149  0.00  0.00    -0.073 C 
ATOM     96  H24 non d ame      -7.200   2.834  66.605  0.00  0.00     0.028 H 
ATOM     97  H25 non d ame      -6.576   4.068  67.725  0.00  0.00     0.028 H 
ATOM     98  H26 non d ame      -8.278   3.557  67.825  0.00  0.00     0.028 H 
ENDBRANCH  93  95
BRANCH  93  99
ATOM     99  C19 non d ame      -9.100   4.479  65.358  0.00  0.00    -0.073 C 
ATOM    100  H27 non d ame      -8.925   4.616  64.291  0.00  0.00     0.028 H 
ATOM    101  H28 non d ame      -9.342   3.434  65.556  0.00  0.00     0.028 H 
ATOM    102  H29 non d ame      -9.930   5.110  65.673  0.00  0.00     0.028 H 
ENDBRANCH  93  99
ENDBRANCH  90  93
ENDBRANCH   1  90
TORSDOF 26
ENDMDL
MODEL 2
REMARK VINA RESULT:      -7.6      2.422      7.362
REMARK  26 active torsions:
REMARK  status: ('A' for Active; 'I' for Inactive)
REMARK    1  A    between atoms: C2_2  and  C3_3 
REMARK    2  A    between atoms: C4_6  and  C5_7 
REMARK       I    between atoms: C5_7  and  N2_9 
REMARK    3  A    between atoms: N2_9  and  C6_10 
REMARK    4  A    between atoms: C6_10  and  C7_11 
REMARK    5  A    between atoms: C6_10  and  C8_13 
REMARK       I    between atoms: C7_11  and  N3_14 
REMARK    6  A    between atoms: N3_14  and  C9_15 
REMARK    7  A    between atoms: C9_15  and  C10_16 
REMARK    8  A    between atoms: C9_15  and  C11_18 
REMARK       I    between atoms: C10_16  and  N4_21 
REMARK    9  A    between atoms: C11_18  and  C12_19 
REMARK   10  A    between atoms: C11_18  and  C13_20 
REMARK   11  A    between atoms: N4_21  and  C14_22 
REMARK   12  A    between atoms: C14_22  and  C15_23 
REMARK   13  A    between atoms: C14_22  and  C16_25 
REMARK       I    between atoms: C15_23  and  N6_40 
REMARK   14  A    between atoms: C16_25  and  C17_26 
REMARK   15  A    between atoms: C17_26  and  C18_27 
REMARK   16  A    between atoms: C17_26  and  C19_28 
REMARK   17  A    between atoms: C20_29  and  C21_30 
REMARK   18  A    between atoms: C20_29  and  C24_33 
REMARK   19  A    between atoms: C20_29  and  N6_40 
REMARK   20  A    between atoms: C21_30  and  C22_31 
REMARK   21  A    between atoms: C22_31  and  C23_32 
REMARK   22  A    between atoms: C23_32  and  O8_43 
REMARK   23  A    between atoms: C24_33  and  C25_34 
REMARK   24  A    between atoms: C28_38  and  O6_39 
REMARK   25  A    between atoms: C29_42  and  O8_43 
REMARK   26  A    between atoms: C29_42  and  C35_49 
ROOT
ATOM      1  C14 non d ame      -9.046   9.584  65.274  0.00  0.00     0.089 C 
ATOM      2  H20 non d ame      -8.042   9.864  65.594  0.00  0.00     0.087 H 
ENDROOT
BRANCH   1   3
ATOM      3  N4  non d ame      -9.177   8.145  65.448  0.00  0.00    -0.346 N 
ATOM      4  C10 non d ame      -8.082   7.357  66.123  0.00  0.00     0.241 C 
ATOM      5  O4  non d ame      -7.103   7.903  66.514  0.00  0.00    -0.271 OA
ATOM      6  H19 non d ame     -10.016   7.699  65.105  0.00  0.00     0.163 HD
BRANCH   4   7
ATOM      7  C9  non d ame      -8.236   5.869  66.300  0.00  0.00     0.092 C 
ATOM      8  H11 non d ame      -7.254   5.399  66.255  0.00  0.00     0.088 H 
BRANCH   7   9
ATOM      9  N3  non d ame      -8.788   5.590  67.629  0.00  0.00    -0.346 N 
ATOM     10  C7  non d ame      -7.923   5.133  68.688  0.00  0.00     0.240 C 
ATOM     11  O3  non d ame      -6.779   4.983  68.489  0.00  0.00    -0.271 OA
ATOM     12  H10 non d ame      -9.773   5.713  67.816  0.00  0.00     0.163 HD
BRANCH  10  13
ATOM     13  C6  non d ame      -8.518   4.835  70.099  0.00  0.00     0.086 C 
ATOM     14  H6  non d ame      -7.799   4.995  70.903  0.00  0.00     0.086 H 
BRANCH  13  15
ATOM     15  N2  non d ame      -9.626   5.743  70.345  0.00  0.00    -0.343 N 
ATOM     16  C5  non d ame      -9.396   6.968  71.114  0.00  0.00     0.273 C 
ATOM     17  O2  non d ame      -8.318   7.213  71.532  0.00  0.00    -0.266 OA
ATOM     18  H5  non d ame     -10.544   5.526  69.987  0.00  0.00     0.163 HD
BRANCH  16  19
ATOM     19  C4  non d ame     -10.557   7.939  71.380  0.00  0.00     0.154 A 
ATOM     20  C1  non d ame     -11.871   7.610  71.844  0.00  0.00    -0.017 A 
ATOM     21  C2  non d ame     -12.549   8.846  71.923  0.00  0.00     0.077 A 
ATOM     22  H1  non d ame     -12.270   6.624  72.085  0.00  0.00     0.091 H 
ATOM     23  O1  non d ame     -11.714   9.771  71.549  0.00  0.00    -0.218 OA
ATOM     24  N1  non d ame     -10.545   9.266  71.226  0.00  0.00    -0.123 NA
BRANCH  21  25
ATOM     25  C3  non d ame     -13.990   9.056  72.367  0.00  0.00    -0.029 C 
ATOM     26  H2  non d ame     -14.108  10.069  72.757  0.00  0.00     0.036 H 
ATOM     27  H3  non d ame     -14.657   8.916  71.516  0.00  0.00     0.036 H 
ATOM     28  H4  non d ame     -14.240   8.336  73.147  0.00  0.00     0.036 H 
ENDBRANCH  21  25
ENDBRANCH  16  19
ENDBRANCH  13  15
BRANCH  13  29
ATOM     29  C8  non d ame      -9.000   3.407  70.153  0.00  0.00    -0.049 C 
ATOM     30  H7  non d ame      -9.216   3.058  69.144  0.00  0.00     0.030 H 
ATOM     31  H8  non d ame      -8.226   2.779  70.597  0.00  0.00     0.030 H 
ATOM     32  H9  non d ame      -9.904   3.351  70.758  0.00  0.00     0.030 H 
ENDBRANCH  13  29
ENDBRANCH  10  13
ENDBRANCH   7   9
BRANCH   7  33
ATOM     33  C11 non d ame      -9.201   5.314  65.212  0.00  0.00    -0.033 C 
ATOM     34  H12 non d ame     -10.017   6.029  65.102  0.00  0.00     0.042 H 
BRANCH  33  35
ATOM     35  C12 non d ame      -8.490   5.196  63.828  0.00  0.00    -0.071 C 
ATOM     36  H13 non d ame      -7.765   6.003  63.722  0.00  0.00     0.028 H 
ATOM     37  H14 non d ame      -7.978   4.236  63.764  0.00  0.00     0.028 H 
ATOM     38  H15 non d ame      -9.232   5.265  63.033  0.00  0.00     0.028 H 
ENDBRANCH  33  35
BRANCH  33  39
ATOM     39  C13 non d ame      -9.813   3.946  65.654  0.00  0.00    -0.071 C 
ATOM     40  H16 non d ame     -10.598   4.119  66.389  0.00  0.00     0.028 H 
ATOM     41  H17 non d ame     -10.233   3.438  64.785  0.00  0.00     0.028 H 
ATOM     42  H18 non d ame      -9.033   3.326  66.095  0.00  0.00     0.028 H 
ENDBRANCH  33  39
ENDBRANCH   7  33
ENDBRANCH   4   7
ENDBRANCH   1   3
BRANCH   1  43
ATOM     43  C15 non d ame     -10.149  10.287  66.115  0.00  0.00     0.240 C 
ATOM     44  O5  non d ame     -10.706   9.688  66.979  0.00  0.00    -0.271 OA
ATOM     45  N6  non d ame     -10.506  11.710  65.852  0.00  0.00    -0.355 N 
ATOM     46  H46 non d ame     -10.037  12.230  65.124  0.00  0.00     0.162 HD
BRANCH  45  47
ATOM     47  C20 non d ame     -11.556  12.364  66.662  0.00  0.00     0.013 C 
ATOM     48  H30 non d ame     -12.244  11.592  67.005  0.00  0.00     0.072 H 
BRANCH  47  49
ATOM     49  C21 non d ame     -12.294  13.370  65.806  0.00  0.00    -0.038 C 
ATOM     50  H31 non d ame     -13.088  12.810  65.312  0.00  0.00     0.036 H 
ATOM     51  H32 non d ame     -12.542  14.196  66.473  0.00  0.00     0.036 H 
BRANCH  49  52
ATOM     52  C22 non d ame     -11.414  13.963  64.685  0.00  0.00     0.018 C 
ATOM     53  H33 non d ame     -10.395  13.959  65.075  0.00  0.00     0.048 H 
ATOM     54  H34 non d ame     -11.656  13.395  63.787  0.00  0.00     0.048 H 
BRANCH  52  55
ATOM     55  C23 non d ame     -11.738  15.447  64.356  0.00  0.00     0.259 C 
ATOM     56  O7  non d ame     -12.786  15.744  63.882  0.00  0.00    -0.265 OA
BRANCH  55  57
ATOM     57  O8  non d ame     -10.761  16.448  64.613  0.00  0.00    -0.317 OA
BRANCH  57  58
ATOM     58  C29 non d ame      -9.956  16.195  65.769  0.00  0.00     0.052 C 
ATOM     59  H47 non d ame     -10.518  15.479  66.369  0.00  0.00     0.082 H 
ATOM     60  H48 non d ame      -8.970  15.930  65.388  0.00  0.00     0.082 H 
BRANCH  58  61
ATOM     61  C35 non d ame      -9.836  17.519  66.568  0.00  0.00    -0.034 A 
ATOM     62  C30 non d ame     -10.491  18.663  66.125  0.00  0.00    -0.075 A 
ATOM     63  C31 non d ame     -10.383  19.852  66.843  0.00  0.00    -0.082 A 
ATOM     64  H49 non d ame     -11.089  18.627  65.215  0.00  0.00     0.084 H 
ATOM     65  C32 non d ame      -9.613  19.896  68.008  0.00  0.00    -0.083 A 
ATOM     66  H50 non d ame     -10.899  20.746  66.493  0.00  0.00     0.083 H 
ATOM     67  C33 non d ame      -8.958  18.753  68.446  0.00  0.00    -0.082 A 
ATOM     68  H51 non d ame      -9.523  20.822  68.576  0.00  0.00     0.083 H 
ATOM     69  C34 non d ame      -9.066  17.561  67.732  0.00  0.00    -0.075 A 
ATOM     70  H52 non d ame      -8.356  18.791  69.355  0.00  0.00     0.083 H 
ATOM     71  H53 non d ame      -8.549  16.667  68.083  0.00  0.00     0.084 H 
ENDBRANCH  58  61
ENDBRANCH  57  58
ENDBRANCH  55  57
ENDBRANCH  52  55
ENDBRANCH  49  52
ENDBRANCH  47  49
BRANCH  47  72
ATOM     72  C24 non d ame     -10.920  13.077  67.853  0.00  0.00    -0.039 C 
ATOM     73  H35 non d ame     -10.449  12.292  68.444  0.00  0.00     0.036 H 
ATOM     74  H36 non d ame     -10.312  13.874  67.424  0.00  0.00     0.036 H 
BRANCH  72  75
ATOM     75  C25 non d ame     -12.022  13.773  68.784  0.00  0.00    -0.001 C 
ATOM     76  C26 non d ame     -11.662  15.365  68.986  0.00  0.00    -0.035 C 
ATOM     77  C27 non d ame     -11.673  15.651  70.310  0.00  0.00     0.085 C 
ATOM     78  H38 non d ame     -10.629  15.553  68.694  0.00  0.00     0.036 H 
ATOM     79  H39 non d ame     -12.464  15.984  68.584  0.00  0.00     0.036 H 
ATOM     80  N5  non d ame     -11.686  14.333  71.046  0.00  0.00    -0.049 N 
ATOM     81  H40 non d ame     -10.729  16.159  70.507  0.00  0.00     0.075 H 
ATOM     82  H41 non d ame     -12.617  16.165  70.488  0.00  0.00     0.075 H 
ATOM     83  C28 non d ame     -12.071  13.214  69.948  0.00  0.00     0.193 C 
ATOM     84  H42 non d ame     -10.738  14.168  71.354  0.00  0.00     0.280 HD
ATOM     85  H43 non d ame     -12.434  14.390  71.722  0.00  0.00     0.280 HD
ATOM     86  H44 non d ame     -13.074  12.786  69.921  0.00  0.00     0.129 H 
ATOM     87  H37 non d ame     -13.038  13.530  68.474  0.00  0.00     0.046 H 
BRANCH  83  88
ATOM     88  O6  non d ame     -11.183  12.099  70.048  0.00  0.00    -0.369 OA
ATOM     89  H45 non d ame     -11.435  11.557  70.799  0.00  0.00     0.212 HD
ENDBRANCH  83  88
ENDBRANCH  72  75
ENDBRANCH  47  72
ENDBRANCH  45  47
ENDBRANCH   1  43
BRANCH   1  90
ATOM     90  C16 non d ame      -9.230   9.924  63.803  0.00  0.00    -0.035 C 
ATOM     91  H21 non d ame      -9.877   9.142  63.405  0.00  0.00     0.037 H 
ATOM     92  H22 non d ame      -9.559  10.963  63.786  0.00  0.00     0.037 H 
BRANCH  90  93
ATOM     93  C17 non d ame      -7.907   9.865  62.976  0.00  0.00    -0.059 C 
ATOM     94  H23 non d ame      -7.942  10.669  62.239  0.00  0.00     0.038 H 
BRANCH  93  95
ATOM     95  C18 non d ame      -6.644  10.088  63.866  0.00  0.00    -0.073 C 
ATOM     96  H24 non d ame      -5.782  10.292  63.229  0.00  0.00     0.028 H 
ATOM     97  H25 non d ame      -6.812  10.936  64.530  0.00  0.00     0.028 H 
ATOM     98  H26 non d ame      -6.455   9.194  64.460  0.00  0.00     0.028 H 
ENDBRANCH  93  95
BRANCH  93  99
ATOM     99  C19 non d ame      -7.804   8.547  62.203  0.00  0.00    -0.073 C 
ATOM    100  H27 non d ame      -6.846   8.504  61.685  0.00  0.00     0.028 H 
ATOM    101  H28 non d ame      -7.880   7.712  62.899  0.00  0.00     0.028 H 
ATOM    102  H29 non d ame      -8.613   8.489  61.476  0.00  0.00     0.028 H 
ENDBRANCH  93  99
ENDBRANCH  90  93
ENDBRANCH   1  90
TORSDOF 26
ENDMDL
MODEL 3
REMARK VINA RESULT:      -7.5      3.182      7.276
REMARK  26 active torsions:
REMARK  status: ('A' for Active; 'I' for Inactive)
REMARK    1  A    between atoms: C2_2  and  C3_3 
REMARK    2  A    between atoms: C4_6  and  C5_7 
REMARK       I    between atoms: C5_7  and  N2_9 
REMARK    3  A    between atoms: N2_9  and  C6_10 
REMARK    4  A    between atoms: C6_10  and  C7_11 
REMARK    5  A    between atoms: C6_10  and  C8_13 
REMARK       I    between atoms: C7_11  and  N3_14 
REMARK    6  A    between atoms: N3_14  and  C9_15 
REMARK    7  A    between atoms: C9_15  and  C10_16 
REMARK    8  A    between atoms: C9_15  and  C11_18 
REMARK       I    between atoms: C10_16  and  N4_21 
REMARK    9  A    between atoms: C11_18  and  C12_19 
REMARK   10  A    between atoms: C11_18  and  C13_20 
REMARK   11  A    between atoms: N4_21  and  C14_22 
REMARK   12  A    between atoms: C14_22  and  C15_23 
REMARK   13  A    between atoms: C14_22  and  C16_25 
REMARK       I    between atoms: C15_23  and  N6_40 
REMARK   14  A    between atoms: C16_25  and  C17_26 
REMARK   15  A    between atoms: C17_26  and  C18_27 
REMARK   16  A    between atoms: C17_26  and  C19_28 
REMARK   17  A    between atoms: C20_29  and  C21_30 
REMARK   18  A    between atoms: C20_29  and  C24_33 
REMARK   19  A    between atoms: C20_29  and  N6_40 
REMARK   20  A    between atoms: C21_30  and  C22_31 
REMARK   21  A    between atoms: C22_31  and  C23_32 
REMARK   22  A    between atoms: C23_32  and  O8_43 
REMARK   23  A    between atoms: C24_33  and  C25_34 
REMARK   24  A    between atoms: C28_38  and  O6_39 
REMARK   25  A    between atoms: C29_42  and  O8_43 
REMARK   26  A    between atoms: C29_42  and  C35_49 
ROOT
ATOM      1  C14 non d ame      -6.654  15.911  67.648  0.00  0.00     0.089 C 
ATOM      2  H20 non d ame      -6.052  16.384  66.873  0.00  0.00     0.087 H 
ENDROOT
BRANCH   1   3
ATOM      3  N4  non d ame      -8.053  16.108  67.299  0.00  0.00    -0.346 N 
ATOM      4  C10 non d ame      -8.457  17.233  66.379  0.00  0.00     0.241 C 
ATOM      5  O4  non d ame      -7.638  17.968  65.934  0.00  0.00    -0.271 OA
ATOM      6  H19 non d ame      -8.735  15.473  67.690  0.00  0.00     0.163 HD
BRANCH   4   7
ATOM      7  C9  non d ame      -9.908  17.420  66.024  0.00  0.00     0.092 C 
ATOM      8  H11 non d ame      -9.980  17.921  65.059  0.00  0.00     0.088 H 
BRANCH   7   9
ATOM      9  N3  non d ame     -10.549  16.109  65.879  0.00  0.00    -0.346 N 
ATOM     10  C7  non d ame     -11.330  15.814  64.704  0.00  0.00     0.240 C 
ATOM     11  O3  non d ame     -11.455  16.620  63.864  0.00  0.00    -0.271 OA
ATOM     12  H10 non d ame     -10.451  15.404  66.596  0.00  0.00     0.163 HD
BRANCH  10  13
ATOM     13  C6  non d ame     -12.012  14.418  64.557  0.00  0.00     0.086 C 
ATOM     14  H6  non d ame     -12.676  14.361  63.695  0.00  0.00     0.086 H 
BRANCH  13  15
ATOM     15  N2  non d ame     -10.984  13.410  64.358  0.00  0.00    -0.343 N 
ATOM     16  C5  non d ame     -11.326  12.154  63.686  0.00  0.00     0.273 C 
ATOM     17  O2  non d ame     -12.431  11.964  63.313  0.00  0.00    -0.266 OA
ATOM     18  H5  non d ame     -10.042  13.580  64.681  0.00  0.00     0.163 HD
BRANCH  16  19
ATOM     19  C4  non d ame     -10.249  11.081  63.466  0.00  0.00     0.154 A 
ATOM     20  C1  non d ame      -9.837  10.067  64.389  0.00  0.00    -0.017 A 
ATOM     21  C2  non d ame      -8.829   9.346  63.712  0.00  0.00     0.077 A 
ATOM     22  H1  non d ame     -10.212   9.884  65.397  0.00  0.00     0.091 H 
ATOM     23  O1  non d ame      -8.688   9.888  62.537  0.00  0.00    -0.218 OA
ATOM     24  N1  non d ame      -9.505  10.903  62.371  0.00  0.00    -0.123 NA
BRANCH  21  25
ATOM     25  C3  non d ame      -8.055   8.153  64.255  0.00  0.00    -0.029 C 
ATOM     26  H2  non d ame      -8.722   7.522  64.844  0.00  0.00     0.036 H 
ATOM     27  H3  non d ame      -7.649   7.575  63.424  0.00  0.00     0.036 H 
ATOM     28  H4  non d ame      -7.238   8.505  64.885  0.00  0.00     0.036 H 
ENDBRANCH  21  25
ENDBRANCH  16  19
ENDBRANCH  13  15
BRANCH  13  29
ATOM     29  C8  non d ame     -12.802  14.108  65.803  0.00  0.00    -0.049 C 
ATOM     30  H7  non d ame     -12.441  13.178  66.241  0.00  0.00     0.030 H 
ATOM     31  H8  non d ame     -12.681  14.920  66.521  0.00  0.00     0.030 H 
ATOM     32  H9  non d ame     -13.856  14.004  65.548  0.00  0.00     0.030 H 
ENDBRANCH  13  29
ENDBRANCH  10  13
ENDBRANCH   7   9
BRANCH   7  33
ATOM     33  C11 non d ame     -10.620  18.221  67.153  0.00  0.00    -0.033 C 
ATOM     34  H12 non d ame     -11.693  18.056  67.046  0.00  0.00     0.042 H 
BRANCH  33  35
ATOM     35  C12 non d ame     -10.205  17.704  68.566  0.00  0.00    -0.071 C 
ATOM     36  H13 non d ame     -11.096  17.414  69.123  0.00  0.00     0.028 H 
ATOM     37  H14 non d ame      -9.548  16.841  68.458  0.00  0.00     0.028 H 
ATOM     38  H15 non d ame      -9.681  18.494  69.102  0.00  0.00     0.028 H 
ENDBRANCH  33  35
BRANCH  33  39
ATOM     39  C13 non d ame     -10.349  19.753  67.009  0.00  0.00    -0.071 C 
ATOM     40  H16 non d ame     -10.321  20.018  65.952  0.00  0.00     0.028 H 
ATOM     41  H17 non d ame     -11.144  20.311  67.504  0.00  0.00     0.028 H 
ATOM     42  H18 non d ame      -9.392  19.996  67.470  0.00  0.00     0.028 H 
ENDBRANCH  33  39
ENDBRANCH   7  33
ENDBRANCH   4   7
ENDBRANCH   1   3
BRANCH   1  43
ATOM     43  C15 non d ame      -6.381  14.383  67.754  0.00  0.00     0.240 C 
ATOM     44  O5  non d ame      -5.296  13.959  67.516  0.00  0.00    -0.271 OA
ATOM     45  N6  non d ame      -7.469  13.449  68.159  0.00  0.00    -0.355 N 
ATOM     46  H46 non d ame      -8.394  13.798  68.368  0.00  0.00     0.162 HD
BRANCH  45  47
ATOM     47  C20 non d ame      -7.193  12.000  68.257  0.00  0.00     0.013 C 
ATOM     48  H30 non d ame      -6.513  11.733  67.447  0.00  0.00     0.072 H 
BRANCH  47  49
ATOM     49  C21 non d ame      -8.489  11.233  68.115  0.00  0.00    -0.038 C 
ATOM     50  H31 non d ame      -8.307  10.486  67.343  0.00  0.00     0.036 H 
ATOM     51  H32 non d ame      -8.756  10.920  69.125  0.00  0.00     0.036 H 
BRANCH  49  52
ATOM     52  C22 non d ame      -9.653  12.111  67.609  0.00  0.00     0.018 C 
ATOM     53  H33 non d ame      -9.501  13.093  68.059  0.00  0.00     0.048 H 
ATOM     54  H34 non d ame      -9.654  12.004  66.524  0.00  0.00     0.048 H 
BRANCH  52  55
ATOM     55  C23 non d ame     -11.052  11.633  68.088  0.00  0.00     0.259 C 
ATOM     56  O7  non d ame     -11.619  10.760  67.517  0.00  0.00    -0.265 OA
BRANCH  55  57
ATOM     57  O8  non d ame     -11.656  12.262  69.212  0.00  0.00    -0.317 OA
BRANCH  57  58
ATOM     58  C29 non d ame     -11.436  13.674  69.280  0.00  0.00     0.052 C 
ATOM     59  H47 non d ame     -10.354  13.805  69.279  0.00  0.00     0.082 H 
ATOM     60  H48 non d ame     -12.037  14.104  68.479  0.00  0.00     0.082 H 
BRANCH  58  61
ATOM     61  C35 non d ame     -11.991  14.181  70.637  0.00  0.00    -0.034 A 
ATOM     62  C30 non d ame     -11.526  15.375  71.177  0.00  0.00    -0.075 A 
ATOM     63  C31 non d ame     -12.025  15.831  72.397  0.00  0.00    -0.082 A 
ATOM     64  H49 non d ame     -10.771  15.954  70.646  0.00  0.00     0.084 H 
ATOM     65  C32 non d ame     -12.991  15.086  73.077  0.00  0.00    -0.083 A 
ATOM     66  H50 non d ame     -11.659  16.768  72.816  0.00  0.00     0.083 H 
ATOM     67  C33 non d ame     -13.450  13.892  72.536  0.00  0.00    -0.082 A 
ATOM     68  H51 non d ame     -13.386  15.434  74.031  0.00  0.00     0.083 H 
ATOM     69  C34 non d ame     -12.956  13.435  71.316  0.00  0.00    -0.075 A 
ATOM     70  H52 non d ame     -14.203  13.312  73.071  0.00  0.00     0.083 H 
ATOM     71  H53 non d ame     -13.323  12.497  70.897  0.00  0.00     0.084 H 
ENDBRANCH  58  61
ENDBRANCH  57  58
ENDBRANCH  55  57
ENDBRANCH  52  55
ENDBRANCH  49  52
ENDBRANCH  47  49
BRANCH  47  72
ATOM     72  C24 non d ame      -6.559  11.685  69.609  0.00  0.00    -0.039 C 
ATOM     73  H35 non d ame      -5.980  12.570  69.872  0.00  0.00     0.036 H 
ATOM     74  H36 non d ame      -7.381  11.362  70.248  0.00  0.00     0.036 H 
BRANCH  72  75
ATOM     75  C25 non d ame      -5.530  10.461  69.510  0.00  0.00    -0.001 C 
ATOM     76  C26 non d ame      -5.861   9.353  70.680  0.00  0.00    -0.035 C 
ATOM     77  C27 non d ame      -4.720   9.078  71.356  0.00  0.00     0.085 C 
ATOM     78  H38 non d ame      -6.506   9.794  71.439  0.00  0.00     0.036 H 
ATOM     79  H39 non d ame      -6.126   8.398  70.226  0.00  0.00     0.036 H 
ATOM     80  N5  non d ame      -3.712  10.133  70.970  0.00  0.00    -0.049 N 
ATOM     81  H40 non d ame      -4.970   9.194  72.410  0.00  0.00     0.075 H 
ATOM     82  H41 non d ame      -4.384   8.112  70.977  0.00  0.00     0.075 H 
ATOM     83  C28 non d ame      -4.311  10.862  69.659  0.00  0.00     0.193 C 
ATOM     84  H42 non d ame      -3.693  10.801  71.728  0.00  0.00     0.280 HD
ATOM     85  H43 non d ame      -2.869   9.643  70.708  0.00  0.00     0.280 HD
ATOM     86  H44 non d ame      -3.907  10.642  68.670  0.00  0.00     0.129 H 
ATOM     87  H37 non d ame      -5.427  10.089  68.490  0.00  0.00     0.046 H 
BRANCH  83  88
ATOM     88  O6  non d ame      -4.223  12.280  69.801  0.00  0.00    -0.369 OA
ATOM     89  H45 non d ame      -4.132  12.683  68.935  0.00  0.00     0.212 HD
ENDBRANCH  83  88
ENDBRANCH  72  75
ENDBRANCH  47  72
ENDBRANCH  45  47
ENDBRANCH   1  43
BRANCH   1  90
ATOM     90  C16 non d ame      -6.378  16.573  68.989  0.00  0.00    -0.035 C 
ATOM     91  H21 non d ame      -7.359  16.748  69.431  0.00  0.00     0.037 H 
ATOM     92  H22 non d ame      -5.663  15.922  69.491  0.00  0.00     0.037 H 
BRANCH  90  93
ATOM     93  C17 non d ame      -5.694  17.972  68.868  0.00  0.00    -0.059 C 
ATOM     94  H23 non d ame      -5.317  18.068  67.850  0.00  0.00     0.038 H 
BRANCH  93  95
ATOM     95  C18 non d ame      -6.696  19.143  69.119  0.00  0.00    -0.073 C 
ATOM     96  H24 non d ame      -6.964  19.602  68.167  0.00  0.00     0.028 H 
ATOM     97  H25 non d ame      -7.594  18.756  69.600  0.00  0.00     0.028 H 
ATOM     98  H26 non d ame      -6.231  19.888  69.764  0.00  0.00     0.028 H 
ENDBRANCH  93  95
BRANCH  93  99
ATOM     99  C19 non d ame      -4.490  18.074  69.808  0.00  0.00    -0.073 C 
ATOM    100  H27 non d ame      -3.588  18.260  69.225  0.00  0.00     0.028 H 
ATOM    101  H28 non d ame      -4.645  18.893  70.510  0.00  0.00     0.028 H 
ATOM    102  H29 non d ame      -4.379  17.140  70.359  0.00  0.00     0.028 H 
ENDBRANCH  93  99
ENDBRANCH  90  93
ENDBRANCH   1  90
TORSDOF 26
ENDMDL
MODEL 4
REMARK VINA RESULT:      -7.4      2.999      8.344
REMARK  26 active torsions:
REMARK  status: ('A' for Active; 'I' for Inactive)
REMARK    1  A    between atoms: C2_2  and  C3_3 
REMARK    2  A    between atoms: C4_6  and  C5_7 
REMARK       I    between atoms: C5_7  and  N2_9 
REMARK    3  A    between atoms: N2_9  and  C6_10 
REMARK    4  A    between atoms: C6_10  and  C7_11 
REMARK    5  A    between atoms: C6_10  and  C8_13 
REMARK       I    between atoms: C7_11  and  N3_14 
REMARK    6  A    between atoms: N3_14  and  C9_15 
REMARK    7  A    between atoms: C9_15  and  C10_16 
REMARK    8  A    between atoms: C9_15  and  C11_18 
REMARK       I    between atoms: C10_16  and  N4_21 
REMARK    9  A    between atoms: C11_18  and  C12_19 
REMARK   10  A    between atoms: C11_18  and  C13_20 
REMARK   11  A    between atoms: N4_21  and  C14_22 
REMARK   12  A    between atoms: C14_22  and  C15_23 
REMARK   13  A    between atoms: C14_22  and  C16_25 
REMARK       I    between atoms: C15_23  and  N6_40 
REMARK   14  A    between atoms: C16_25  and  C17_26 
REMARK   15  A    between atoms: C17_26  and  C18_27 
REMARK   16  A    between atoms: C17_26  and  C19_28 
REMARK   17  A    between atoms: C20_29  and  C21_30 
REMARK   18  A    between atoms: C20_29  and  C24_33 
REMARK   19  A    between atoms: C20_29  and  N6_40 
REMARK   20  A    between atoms: C21_30  and  C22_31 
REMARK   21  A    between atoms: C22_31  and  C23_32 
REMARK   22  A    between atoms: C23_32  and  O8_43 
REMARK   23  A    between atoms: C24_33  and  C25_34 
REMARK   24  A    between atoms: C28_38  and  O6_39 
REMARK   25  A    between atoms: C29_42  and  O8_43 
REMARK   26  A    between atoms: C29_42  and  C35_49 
ROOT
ATOM      1  C14 non d ame      -9.154   9.468  69.311  0.00  0.00     0.089 C 
ATOM      2  H20 non d ame      -8.552   8.668  69.741  0.00  0.00     0.087 H 
ENDROOT
BRANCH   1   3
ATOM      3  N4  non d ame      -8.371  10.693  69.381  0.00  0.00    -0.346 N 
ATOM      4  C10 non d ame      -6.868  10.632  69.483  0.00  0.00     0.241 C 
ATOM      5  O4  non d ame      -6.311   9.584  69.510  0.00  0.00    -0.271 OA
ATOM      6  H19 non d ame      -8.865  11.574  69.359  0.00  0.00     0.163 HD
BRANCH   4   7
ATOM      7  C9  non d ame      -6.073  11.909  69.550  0.00  0.00     0.092 C 
ATOM      8  H11 non d ame      -5.409  11.963  68.687  0.00  0.00     0.088 H 
BRANCH   7   9
ATOM      9  N3  non d ame      -6.983  13.056  69.468  0.00  0.00    -0.346 N 
ATOM     10  C7  non d ame      -7.012  13.870  68.278  0.00  0.00     0.240 C 
ATOM     11  O3  non d ame      -6.309  13.618  67.377  0.00  0.00    -0.271 OA
ATOM     12  H10 non d ame      -7.594  13.286  70.238  0.00  0.00     0.163 HD
BRANCH  10  13
ATOM     13  C6  non d ame      -7.980  15.091  68.199  0.00  0.00     0.086 C 
ATOM     14  H6  non d ame      -8.501  15.156  67.243  0.00  0.00     0.086 H 
BRANCH  13  15
ATOM     15  N2  non d ame      -9.004  14.947  69.221  0.00  0.00    -0.343 N 
ATOM     16  C5  non d ame     -10.384  15.336  68.919  0.00  0.00     0.273 C 
ATOM     17  O2  non d ame     -10.659  15.764  67.852  0.00  0.00    -0.266 OA
ATOM     18  H5  non d ame      -8.760  14.582  70.130  0.00  0.00     0.163 HD
BRANCH  16  19
ATOM     19  C4  non d ame     -11.477  15.188  69.989  0.00  0.00     0.154 A 
ATOM     20  C1  non d ame     -12.044  13.970  70.482  0.00  0.00    -0.017 A 
ATOM     21  C2  non d ame     -12.997  14.375  71.443  0.00  0.00     0.077 A 
ATOM     22  H1  non d ame     -11.802  12.948  70.188  0.00  0.00     0.091 H 
ATOM     23  O1  non d ame     -12.970  15.676  71.490  0.00  0.00    -0.218 OA
ATOM     24  N1  non d ame     -12.092  16.172  70.650  0.00  0.00    -0.123 NA
BRANCH  21  25
ATOM     25  C3  non d ame     -13.887  13.460  72.272  0.00  0.00    -0.029 C 
ATOM     26  H2  non d ame     -14.914  13.524  71.910  0.00  0.00     0.036 H 
ATOM     27  H3  non d ame     -13.534  12.433  72.183  0.00  0.00     0.036 H 
ATOM     28  H4  non d ame     -13.851  13.766  73.318  0.00  0.00     0.036 H 
ENDBRANCH  21  25
ENDBRANCH  16  19
ENDBRANCH  13  15
BRANCH  13  29
ATOM     29  C8  non d ame      -7.206  16.365  68.420  0.00  0.00    -0.049 C 
ATOM     30  H7  non d ame      -7.809  17.060  69.005  0.00  0.00     0.030 H 
ATOM     31  H8  non d ame      -6.284  16.141  68.958  0.00  0.00     0.030 H 
ATOM     32  H9  non d ame      -6.965  16.816  67.458  0.00  0.00     0.030 H 
ENDBRANCH  13  29
ENDBRANCH  10  13
ENDBRANCH   7   9
BRANCH   7  33
ATOM     33  C11 non d ame      -5.291  11.965  70.895  0.00  0.00    -0.033 C 
ATOM     34  H12 non d ame      -5.765  11.260  71.579  0.00  0.00     0.042 H 
BRANCH  33  35
ATOM     35  C12 non d ame      -3.809  11.515  70.709  0.00  0.00    -0.071 C 
ATOM     36  H13 non d ame      -3.144  12.341  70.961  0.00  0.00     0.028 H 
ATOM     37  H14 non d ame      -3.601  10.669  71.365  0.00  0.00     0.028 H 
ATOM     38  H15 non d ame      -3.646  11.219  69.673  0.00  0.00     0.028 H 
ENDBRANCH  33  35
BRANCH  33  39
ATOM     39  C13 non d ame      -5.376  13.389  71.531  0.00  0.00    -0.071 C 
ATOM     40  H16 non d ame      -5.858  13.323  72.506  0.00  0.00     0.028 H 
ATOM     41  H17 non d ame      -4.371  13.796  71.648  0.00  0.00     0.028 H 
ATOM     42  H18 non d ame      -5.959  14.042  70.882  0.00  0.00     0.028 H 
ENDBRANCH  33  39
ENDBRANCH   7  33
ENDBRANCH   4   7
ENDBRANCH   1   3
BRANCH   1  43
ATOM     43  C15 non d ame      -9.515   9.196  67.822  0.00  0.00     0.240 C 
ATOM     44  O5  non d ame     -10.216   8.276  67.542  0.00  0.00    -0.271 OA
ATOM     45  N6  non d ame      -8.995  10.086  66.746  0.00  0.00    -0.355 N 
ATOM     46  H46 non d ame      -8.403  10.872  66.971  0.00  0.00     0.162 HD
BRANCH  45  47
ATOM     47  C20 non d ame      -9.349   9.814  65.336  0.00  0.00     0.013 C 
ATOM     48  H30 non d ame      -9.502   8.740  65.229  0.00  0.00     0.072 H 
BRANCH  47  49
ATOM     49  C21 non d ame      -8.217  10.265  64.440  0.00  0.00    -0.038 C 
ATOM     50  H31 non d ame      -8.681  10.532  63.490  0.00  0.00     0.036 H 
ATOM     51  H32 non d ame      -7.671  11.016  65.012  0.00  0.00     0.036 H 
BRANCH  49  52
ATOM     52  C22 non d ame      -7.210   9.136  64.133  0.00  0.00     0.018 C 
ATOM     53  H33 non d ame      -6.271   9.635  63.887  0.00  0.00     0.048 H 
ATOM     54  H34 non d ame      -7.259   8.456  64.984  0.00  0.00     0.048 H 
BRANCH  52  55
ATOM     55  C23 non d ame      -7.582   8.288  62.884  0.00  0.00     0.259 C 
ATOM     56  O7  non d ame      -8.180   8.777  61.981  0.00  0.00    -0.265 OA
BRANCH  55  57
ATOM     57  O8  non d ame      -7.212   6.916  62.837  0.00  0.00    -0.317 OA
BRANCH  57  58
ATOM     58  C29 non d ame      -7.363   6.228  64.082  0.00  0.00     0.052 C 
ATOM     59  H47 non d ame      -6.451   5.646  64.211  0.00  0.00     0.082 H 
ATOM     60  H48 non d ame      -7.629   6.994  64.812  0.00  0.00     0.082 H 
BRANCH  58  61
ATOM     61  C35 non d ame      -8.557   5.246  63.945  0.00  0.00    -0.034 A 
ATOM     62  C30 non d ame      -9.242   4.819  65.078  0.00  0.00    -0.075 A 
ATOM     63  C31 non d ame     -10.314   3.937  64.955  0.00  0.00    -0.082 A 
ATOM     64  H49 non d ame      -8.938   5.175  66.062  0.00  0.00     0.084 H 
ATOM     65  C32 non d ame     -10.700   3.480  63.691  0.00  0.00    -0.083 A 
ATOM     66  H50 non d ame     -10.849   3.606  65.844  0.00  0.00     0.083 H 
ATOM     67  C33 non d ame     -10.012   3.907  62.563  0.00  0.00    -0.082 A 
ATOM     68  H51 non d ame     -11.538   2.791  63.586  0.00  0.00     0.083 H 
ATOM     69  C34 non d ame      -8.941   4.790  62.682  0.00  0.00    -0.075 A 
ATOM     70  H52 non d ame     -10.315   3.547  61.580  0.00  0.00     0.083 H 
ATOM     71  H53 non d ame      -8.406   5.122  61.791  0.00  0.00     0.084 H 
ENDBRANCH  58  61
ENDBRANCH  57  58
ENDBRANCH  55  57
ENDBRANCH  52  55
ENDBRANCH  49  52
ENDBRANCH  47  49
BRANCH  47  72
ATOM     72  C24 non d ame     -10.622  10.571  64.968  0.00  0.00    -0.039 C 
ATOM     73  H35 non d ame     -11.087   9.989  64.172  0.00  0.00     0.036 H 
ATOM     74  H36 non d ame     -11.151  10.726  65.909  0.00  0.00     0.036 H 
BRANCH  72  75
ATOM     75  C25 non d ame     -10.298  12.020  64.366  0.00  0.00    -0.001 C 
ATOM     76  C26 non d ame     -10.684  13.183  65.462  0.00  0.00    -0.035 C 
ATOM     77  C27 non d ame     -11.471  14.106  64.861  0.00  0.00     0.085 C 
ATOM     78  H38 non d ame     -11.328  12.766  66.237  0.00  0.00     0.036 H 
ATOM     79  H39 non d ame      -9.794  13.747  65.739  0.00  0.00     0.036 H 
ATOM     80  N5  non d ame     -11.924  13.513  63.549  0.00  0.00    -0.049 N 
ATOM     81  H40 non d ame     -12.336  14.224  65.515  0.00  0.00     0.075 H 
ATOM     82  H41 non d ame     -10.820  14.956  64.659  0.00  0.00     0.075 H 
ATOM     83  C28 non d ame     -10.969  12.238  63.284  0.00  0.00     0.193 C 
ATOM     84  H42 non d ame     -12.868  13.183  63.694  0.00  0.00     0.280 HD
ATOM     85  H43 non d ame     -11.736  14.207  62.840  0.00  0.00     0.280 HD
ATOM     86  H44 non d ame     -10.160  12.294  62.555  0.00  0.00     0.129 H 
ATOM     87  H37 non d ame      -9.304  12.069  63.921  0.00  0.00     0.046 H 
BRANCH  83  88
ATOM     88  O6  non d ame     -11.753  11.108  62.899  0.00  0.00    -0.369 OA
ATOM     89  H45 non d ame     -12.664  11.380  62.767  0.00  0.00     0.212 HD
ENDBRANCH  83  88
ENDBRANCH  72  75
ENDBRANCH  47  72
ENDBRANCH  45  47
ENDBRANCH   1  43
BRANCH   1  90
ATOM     90  C16 non d ame     -10.428   9.645  70.122  0.00  0.00    -0.035 C 
ATOM     91  H21 non d ame     -10.546  10.723  70.242  0.00  0.00     0.037 H 
ATOM     92  H22 non d ame     -11.188   9.071  69.593  0.00  0.00     0.037 H 
BRANCH  90  93
ATOM     93  C17 non d ame     -10.343   9.048  71.561  0.00  0.00    -0.059 C 
ATOM     94  H23 non d ame     -10.030   9.847  72.233  0.00  0.00     0.038 H 
BRANCH  93  95
ATOM     95  C18 non d ame     -11.723   8.517  72.063  0.00  0.00    -0.073 C 
ATOM     96  H24 non d ame     -12.038   9.090  72.936  0.00  0.00     0.028 H 
ATOM     97  H25 non d ame     -12.464   8.626  71.271  0.00  0.00     0.028 H 
ATOM     98  H26 non d ame     -11.632   7.465  72.333  0.00  0.00     0.028 H 
ENDBRANCH  93  95
BRANCH  93  99
ATOM     99  C19 non d ame      -9.277   7.951  71.635  0.00  0.00    -0.073 C 
ATOM    100  H27 non d ame      -8.681   8.084  72.538  0.00  0.00     0.028 H 
ATOM    101  H28 non d ame      -9.761   6.975  71.659  0.00  0.00     0.028 H 
ATOM    102  H29 non d ame      -8.630   8.014  70.761  0.00  0.00     0.028 H 
ENDBRANCH  93  99
ENDBRANCH  90  93
ENDBRANCH   1  90
TORSDOF 26
ENDMDL
MODEL 5
REMARK VINA RESULT:      -7.4      2.286      6.740
REMARK  26 active torsions:
REMARK  status: ('A' for Active; 'I' for Inactive)
REMARK    1  A    between atoms: C2_2  and  C3_3 
REMARK    2  A    between atoms: C4_6  and  C5_7 
REMARK       I    between atoms: C5_7  and  N2_9 
REMARK    3  A    between atoms: N2_9  and  C6_10 
REMARK    4  A    between atoms: C6_10  and  C7_11 
REMARK    5  A    between atoms: C6_10  and  C8_13 
REMARK       I    between atoms: C7_11  and  N3_14 
REMARK    6  A    between atoms: N3_14  and  C9_15 
REMARK    7  A    between atoms: C9_15  and  C10_16 
REMARK    8  A    between atoms: C9_15  and  C11_18 
REMARK       I    between atoms: C10_16  and  N4_21 
REMARK    9  A    between atoms: C11_18  and  C12_19 
REMARK   10  A    between atoms: C11_18  and  C13_20 
REMARK   11  A    between atoms: N4_21  and  C14_22 
REMARK   12  A    between atoms: C14_22  and  C15_23 
REMARK   13  A    between atoms: C14_22  and  C16_25 
REMARK       I    between atoms: C15_23  and  N6_40 
REMARK   14  A    between atoms: C16_25  and  C17_26 
REMARK   15  A    between atoms: C17_26  and  C18_27 
REMARK   16  A    between atoms: C17_26  and  C19_28 
REMARK   17  A    between atoms: C20_29  and  C21_30 
REMARK   18  A    between atoms: C20_29  and  C24_33 
REMARK   19  A    between atoms: C20_29  and  N6_40 
REMARK   20  A    between atoms: C21_30  and  C22_31 
REMARK   21  A    between atoms: C22_31  and  C23_32 
REMARK   22  A    between atoms: C23_32  and  O8_43 
REMARK   23  A    between atoms: C24_33  and  C25_34 
REMARK   24  A    between atoms: C28_38  and  O6_39 
REMARK   25  A    between atoms: C29_42  and  O8_43 
REMARK   26  A    between atoms: C29_42  and  C35_49 
ROOT
ATOM      1  C14 non d ame     -10.041   9.259  66.860  0.00  0.00     0.089 C 
ATOM      2  H20 non d ame     -11.046   8.840  66.895  0.00  0.00     0.087 H 
ENDROOT
BRANCH   1   3
ATOM      3  N4  non d ame     -10.163  10.662  66.492  0.00  0.00    -0.346 N 
ATOM      4  C10 non d ame     -11.295  11.496  67.036  0.00  0.00     0.241 C 
ATOM      5  O4  non d ame     -12.097  11.016  67.768  0.00  0.00    -0.271 OA
ATOM      6  H19 non d ame      -9.472  11.051  65.866  0.00  0.00     0.163 HD
BRANCH   4   7
ATOM      7  C9  non d ame     -11.404  12.948  66.649  0.00  0.00     0.092 C 
ATOM      8  H11 non d ame     -12.444  13.264  66.730  0.00  0.00     0.088 H 
BRANCH   7   9
ATOM      9  N3  non d ame     -10.630  13.764  67.590  0.00  0.00    -0.346 N 
ATOM     10  C7  non d ame     -11.281  14.364  68.728  0.00  0.00     0.240 C 
ATOM     11  O3  non d ame     -12.427  14.202  68.902  0.00  0.00    -0.271 OA
ATOM     12  H10 non d ame      -9.641  13.914  67.452  0.00  0.00     0.163 HD
BRANCH  10  13
ATOM     13  C6  non d ame     -10.453  15.234  69.724  0.00  0.00     0.086 C 
ATOM     14  H6  non d ame      -9.526  14.752  70.036  0.00  0.00     0.086 H 
BRANCH  13  15
ATOM     15  N2  non d ame     -10.075  16.473  69.064  0.00  0.00    -0.343 N 
ATOM     16  C5  non d ame      -8.664  16.729  68.764  0.00  0.00     0.273 C 
ATOM     17  O2  non d ame      -7.842  15.933  69.059  0.00  0.00    -0.266 OA
ATOM     18  H5  non d ame     -10.783  17.149  68.818  0.00  0.00     0.163 HD
BRANCH  16  19
ATOM     19  C4  non d ame      -8.250  18.033  68.065  0.00  0.00     0.154 A 
ATOM     20  C1  non d ame      -7.158  18.891  68.411  0.00  0.00    -0.017 A 
ATOM     21  C2  non d ame      -7.209  19.943  67.470  0.00  0.00     0.077 A 
ATOM     22  H1  non d ame      -6.438  18.768  69.221  0.00  0.00     0.091 H 
ATOM     23  O1  non d ame      -8.215  19.707  66.679  0.00  0.00    -0.218 OA
ATOM     24  N1  non d ame      -8.839  18.599  67.007  0.00  0.00    -0.123 NA
BRANCH  21  25
ATOM     25  C3  non d ame      -6.260  21.131  67.394  0.00  0.00    -0.029 C 
ATOM     26  H2  non d ame      -6.782  22.036  67.708  0.00  0.00     0.036 H 
ATOM     27  H3  non d ame      -5.407  20.957  68.050  0.00  0.00     0.036 H 
ATOM     28  H4  non d ame      -5.909  21.252  66.369  0.00  0.00     0.036 H 
ENDBRANCH  21  25
ENDBRANCH  16  19
ENDBRANCH  13  15
BRANCH  13  29
ATOM     29  C8  non d ame     -11.283  15.533  70.946  0.00  0.00    -0.049 C 
ATOM     30  H7  non d ame     -11.910  14.673  71.179  0.00  0.00     0.030 H 
ATOM     31  H8  non d ame     -10.624  15.741  71.790  0.00  0.00     0.030 H 
ATOM     32  H9  non d ame     -11.913  16.400  70.754  0.00  0.00     0.030 H 
ENDBRANCH  13  29
ENDBRANCH  10  13
ENDBRANCH   7   9
BRANCH   7  33
ATOM     33  C11 non d ame     -10.841  13.145  65.211  0.00  0.00    -0.033 C 
ATOM     34  H12 non d ame     -10.017  12.443  65.082  0.00  0.00     0.042 H 
BRANCH  33  35
ATOM     35  C12 non d ame     -11.916  12.810  64.130  0.00  0.00    -0.071 C 
ATOM     36  H13 non d ame     -12.240  11.776  64.248  0.00  0.00     0.028 H 
ATOM     37  H14 non d ame     -12.771  13.475  64.249  0.00  0.00     0.028 H 
ATOM     38  H15 non d ame     -11.486  12.946  63.138  0.00  0.00     0.028 H 
ENDBRANCH  33  35
BRANCH  33  39
ATOM     39  C13 non d ame     -10.280  14.591  65.024  0.00  0.00    -0.071 C 
ATOM     40  H16 non d ame      -9.727  14.884  65.915  0.00  0.00     0.028 H 
ATOM     41  H17 non d ame      -9.617  14.615  64.159  0.00  0.00     0.028 H 
ATOM     42  H18 non d ame     -11.108  15.283  64.866  0.00  0.00     0.028 H 
ENDBRANCH  33  39
ENDBRANCH   7  33
ENDBRANCH   4   7
ENDBRANCH   1   3
BRANCH   1  43
ATOM     43  C15 non d ame      -9.318   9.170  68.234  0.00  0.00     0.240 C 
ATOM     44  O5  non d ame      -8.361   9.845  68.444  0.00  0.00    -0.271 OA
ATOM     45  N6  non d ame      -9.821   8.249  69.292  0.00  0.00    -0.355 N 
ATOM     46  H46 non d ame     -10.635   7.673  69.127  0.00  0.00     0.162 HD
BRANCH  45  47
ATOM     47  C20 non d ame      -9.123   8.176  70.594  0.00  0.00     0.013 C 
ATOM     48  H30 non d ame      -8.225   8.790  70.527  0.00  0.00     0.072 H 
BRANCH  47  49
ATOM     49  C21 non d ame      -8.746   6.740  70.880  0.00  0.00    -0.038 C 
ATOM     50  H31 non d ame      -8.549   6.694  71.951  0.00  0.00     0.036 H 
ATOM     51  H32 non d ame      -9.543   6.135  70.445  0.00  0.00     0.036 H 
BRANCH  49  52
ATOM     52  C22 non d ame      -7.441   6.311  70.177  0.00  0.00     0.018 C 
ATOM     53  H33 non d ame      -7.033   7.219  69.731  0.00  0.00     0.048 H 
ATOM     54  H34 non d ame      -6.866   5.767  70.926  0.00  0.00     0.048 H 
BRANCH  52  55
ATOM     55  C23 non d ame      -7.660   5.319  69.000  0.00  0.00     0.259 C 
ATOM     56  O7  non d ame      -7.298   4.191  69.088  0.00  0.00    -0.265 OA
BRANCH  55  57
ATOM     57  O8  non d ame      -8.288   5.778  67.809  0.00  0.00    -0.317 OA
BRANCH  57  58
ATOM     58  C29 non d ame      -8.544   4.747  66.851  0.00  0.00     0.052 C 
ATOM     59  H47 non d ame      -8.017   3.866  67.216  0.00  0.00     0.082 H 
ATOM     60  H48 non d ame      -9.627   4.721  66.729  0.00  0.00     0.082 H 
BRANCH  58  61
ATOM     61  C35 non d ame      -7.908   5.177  65.503  0.00  0.00    -0.034 A 
ATOM     62  C30 non d ame      -8.674   5.183  64.342  0.00  0.00    -0.075 A 
ATOM     63  C31 non d ame      -8.103   5.570  63.131  0.00  0.00    -0.082 A 
ATOM     64  H49 non d ame      -9.721   4.885  64.381  0.00  0.00     0.084 H 
ATOM     65  C32 non d ame      -6.759   5.950  63.083  0.00  0.00    -0.083 A 
ATOM     66  H50 non d ame      -8.707   5.575  62.223  0.00  0.00     0.083 H 
ATOM     67  C33 non d ame      -5.997   5.939  64.243  0.00  0.00    -0.082 A 
ATOM     68  H51 non d ame      -6.305   6.254  62.140  0.00  0.00     0.083 H 
ATOM     69  C34 non d ame      -6.565   5.556  65.457  0.00  0.00    -0.075 A 
ATOM     70  H52 non d ame      -4.948   6.234  64.202  0.00  0.00     0.083 H 
ATOM     71  H53 non d ame      -5.960   5.551  66.365  0.00  0.00     0.084 H 
ENDBRANCH  58  61
ENDBRANCH  57  58
ENDBRANCH  55  57
ENDBRANCH  52  55
ENDBRANCH  49  52
ENDBRANCH  47  49
BRANCH  47  72
ATOM     72  C24 non d ame     -10.039   8.693  71.700  0.00  0.00    -0.039 C 
ATOM     73  H35 non d ame      -9.912   7.999  72.531  0.00  0.00     0.036 H 
ATOM     74  H36 non d ame      -9.780   9.745  71.825  0.00  0.00     0.036 H 
BRANCH  72  75
ATOM     75  C25 non d ame     -11.581   8.635  71.269  0.00  0.00    -0.001 C 
ATOM     76  C26 non d ame     -12.194  10.158  71.171  0.00  0.00    -0.035 C 
ATOM     77  C27 non d ame     -13.336  10.217  71.896  0.00  0.00     0.085 C 
ATOM     78  H38 non d ame     -11.533  10.859  71.679  0.00  0.00     0.036 H 
ATOM     79  H39 non d ame     -12.527  10.363  70.153  0.00  0.00     0.036 H 
ATOM     80  N5  non d ame     -13.386   8.968  72.743  0.00  0.00    -0.049 N 
ATOM     81  H40 non d ame     -13.224  11.084  72.547  0.00  0.00     0.075 H 
ATOM     82  H41 non d ame     -14.145  10.183  71.167  0.00  0.00     0.075 H 
ATOM     83  C28 non d ame     -12.281   7.967  72.124  0.00  0.00     0.193 C 
ATOM     84  H42 non d ame     -13.090   9.240  73.670  0.00  0.00     0.280 HD
ATOM     85  H43 non d ame     -14.300   8.564  72.604  0.00  0.00     0.280 HD
ATOM     86  H44 non d ame     -12.585   7.117  71.512  0.00  0.00     0.129 H 
ATOM     87  H37 non d ame     -11.746   7.978  70.415  0.00  0.00     0.046 H 
BRANCH  83  88
ATOM     88  O6  non d ame     -11.476   7.416  73.168  0.00  0.00    -0.369 OA
ATOM     89  H45 non d ame     -10.782   6.875  72.785  0.00  0.00     0.212 HD
ENDBRANCH  83  88
ENDBRANCH  72  75
ENDBRANCH  47  72
ENDBRANCH  45  47
ENDBRANCH   1  43
BRANCH   1  90
ATOM     90  C16 non d ame      -9.220   8.538  65.802  0.00  0.00    -0.035 C 
ATOM     91  H21 non d ame      -8.492   7.945  66.357  0.00  0.00     0.037 H 
ATOM     92  H22 non d ame      -9.948   8.044  65.159  0.00  0.00     0.037 H 
BRANCH  90  93
ATOM     93  C17 non d ame      -8.399   9.498  64.884  0.00  0.00    -0.059 C 
ATOM     94  H23 non d ame      -8.727  10.516  65.093  0.00  0.00     0.038 H 
BRANCH  93  95
ATOM     95  C18 non d ame      -6.866   9.423  65.173  0.00  0.00    -0.073 C 
ATOM     96  H24 non d ame      -6.490  10.421  65.401  0.00  0.00     0.028 H 
ATOM     97  H25 non d ame      -6.688   8.766  66.025  0.00  0.00     0.028 H 
ATOM     98  H26 non d ame      -6.349   9.031  64.298  0.00  0.00     0.028 H 
ENDBRANCH  93  95
BRANCH  93  99
ATOM     99  C19 non d ame      -8.689   9.221  63.406  0.00  0.00    -0.073 C 
ATOM    100  H27 non d ame      -7.750   9.178  62.854  0.00  0.00     0.028 H 
ATOM    101  H28 non d ame      -9.211   8.269  63.311  0.00  0.00     0.028 H 
ATOM    102  H29 non d ame      -9.311  10.020  63.003  0.00  0.00     0.028 H 
ENDBRANCH  93  99
ENDBRANCH  90  93
ENDBRANCH   1  90
TORSDOF 26
ENDMDL
MODEL 6
REMARK VINA RESULT:      -7.3      2.542      6.104
REMARK  26 active torsions:
REMARK  status: ('A' for Active; 'I' for Inactive)
REMARK    1  A    between atoms: C2_2  and  C3_3 
REMARK    2  A    between atoms: C4_6  and  C5_7 
REMARK       I    between atoms: C5_7  and  N2_9 
REMARK    3  A    between atoms: N2_9  and  C6_10 
REMARK    4  A    between atoms: C6_10  and  C7_11 
REMARK    5  A    between atoms: C6_10  and  C8_13 
REMARK       I    between atoms: C7_11  and  N3_14 
REMARK    6  A    between atoms: N3_14  and  C9_15 
REMARK    7  A    between atoms: C9_15  and  C10_16 
REMARK    8  A    between atoms: C9_15  and  C11_18 
REMARK       I    between atoms: C10_16  and  N4_21 
REMARK    9  A    between atoms: C11_18  and  C12_19 
REMARK   10  A    between atoms: C11_18  and  C13_20 
REMARK   11  A    between atoms: N4_21  and  C14_22 
REMARK   12  A    between atoms: C14_22  and  C15_23 
REMARK   13  A    between atoms: C14_22  and  C16_25 
REMARK       I    between atoms: C15_23  and  N6_40 
REMARK   14  A    between atoms: C16_25  and  C17_26 
REMARK   15  A    between atoms: C17_26  and  C18_27 
REMARK   16  A    between atoms: C17_26  and  C19_28 
REMARK   17  A    between atoms: C20_29  and  C21_30 
REMARK   18  A    between atoms: C20_29  and  C24_33 
REMARK   19  A    between atoms: C20_29  and  N6_40 
REMARK   20  A    between atoms: C21_30  and  C22_31 
REMARK   21  A    between atoms: C22_31  and  C23_32 
REMARK   22  A    between atoms: C23_32  and  O8_43 
REMARK   23  A    between atoms: C24_33  and  C25_34 
REMARK   24  A    between atoms: C28_38  and  O6_39 
REMARK   25  A    between atoms: C29_42  and  O8_43 
REMARK   26  A    between atoms: C29_42  and  C35_49 
ROOT
ATOM      1  C14 non d ame     -10.936   9.248  69.774  0.00  0.00     0.089 C 
ATOM      2  H20 non d ame     -11.471   8.384  69.381  0.00  0.00     0.087 H 
ENDROOT
BRANCH   1   3
ATOM      3  N4  non d ame      -9.628   9.282  69.137  0.00  0.00    -0.346 N 
ATOM      4  C10 non d ame      -8.947   8.001  68.728  0.00  0.00     0.241 C 
ATOM      5  O4  non d ame      -9.470   6.953  68.925  0.00  0.00    -0.271 OA
ATOM      6  H19 non d ame      -9.199  10.184  68.980  0.00  0.00     0.163 HD
BRANCH   4   7
ATOM      7  C9  non d ame      -7.596   8.054  68.064  0.00  0.00     0.092 C 
ATOM      8  H11 non d ame      -7.373   7.081  67.626  0.00  0.00     0.088 H 
BRANCH   7   9
ATOM      9  N3  non d ame      -7.629   9.024  66.965  0.00  0.00    -0.346 N 
ATOM     10  C7  non d ame      -7.026   8.699  65.697  0.00  0.00     0.240 C 
ATOM     11  O3  non d ame      -6.507   7.661  65.543  0.00  0.00    -0.271 OA
ATOM     12  H10 non d ame      -8.071   9.925  67.084  0.00  0.00     0.163 HD
BRANCH  10  13
ATOM     13  C6  non d ame      -7.061   9.737  64.533  0.00  0.00     0.086 C 
ATOM     14  H6  non d ame      -7.213   9.274  63.558  0.00  0.00     0.086 H 
BRANCH  13  15
ATOM     15  N2  non d ame      -8.180  10.641  64.743  0.00  0.00    -0.343 N 
ATOM     16  C5  non d ame      -9.337  10.576  63.846  0.00  0.00     0.273 C 
ATOM     17  O2  non d ame      -9.356   9.796  62.958  0.00  0.00    -0.266 OA
ATOM     18  H5  non d ame      -8.155  11.306  65.502  0.00  0.00     0.163 HD
BRANCH  16  19
ATOM     19  C4  non d ame     -10.528  11.524  64.056  0.00  0.00     0.154 A 
ATOM     20  C1  non d ame     -10.790  12.342  65.201  0.00  0.00    -0.017 A 
ATOM     21  C2  non d ame     -11.995  13.015  64.899  0.00  0.00     0.077 A 
ATOM     22  H1  non d ame     -10.197  12.434  66.111  0.00  0.00     0.091 H 
ATOM     23  O1  non d ame     -12.372  12.623  63.716  0.00  0.00    -0.218 OA
ATOM     24  N1  non d ame     -11.532  11.752  63.205  0.00  0.00    -0.123 NA
BRANCH  21  25
ATOM     25  C3  non d ame     -12.717  14.015  65.792  0.00  0.00    -0.029 C 
ATOM     26  H2  non d ame     -12.257  14.998  65.684  0.00  0.00     0.036 H 
ATOM     27  H3  non d ame     -13.766  14.071  65.499  0.00  0.00     0.036 H 
ATOM     28  H4  non d ame     -12.647  13.693  66.831  0.00  0.00     0.036 H 
ENDBRANCH  21  25
ENDBRANCH  16  19
ENDBRANCH  13  15
BRANCH  13  29
ATOM     29  C8  non d ame      -5.770  10.514  64.508  0.00  0.00    -0.049 C 
ATOM     30  H7  non d ame      -5.217  10.331  65.430  0.00  0.00     0.030 H 
ATOM     31  H8  non d ame      -5.169  10.193  63.656  0.00  0.00     0.030 H 
ATOM     32  H9  non d ame      -5.986  11.577  64.420  0.00  0.00     0.030 H 
ENDBRANCH  13  29
ENDBRANCH  10  13
ENDBRANCH   7   9
BRANCH   7  33
ATOM     33  C11 non d ame      -6.523   8.488  69.105  0.00  0.00    -0.033 C 
ATOM     34  H12 non d ame      -6.899   8.224  70.094  0.00  0.00     0.042 H 
BRANCH  33  35
ATOM     35  C12 non d ame      -5.182   7.720  68.892  0.00  0.00    -0.071 C 
ATOM     36  H13 non d ame      -4.345   8.404  69.035  0.00  0.00     0.028 H 
ATOM     37  H14 non d ame      -5.111   6.905  69.613  0.00  0.00     0.028 H 
ATOM     38  H15 non d ame      -5.152   7.314  67.882  0.00  0.00     0.028 H 
ENDBRANCH  33  35
BRANCH  33  39
ATOM     39  C13 non d ame      -6.302  10.034  69.068  0.00  0.00    -0.071 C 
ATOM     40  H16 non d ame      -5.548  10.311  69.804  0.00  0.00     0.028 H 
ATOM     41  H17 non d ame      -5.967  10.331  68.074  0.00  0.00     0.028 H 
ATOM     42  H18 non d ame      -7.239  10.540  69.301  0.00  0.00     0.028 H 
ENDBRANCH  33  39
ENDBRANCH   7  33
ENDBRANCH   4   7
ENDBRANCH   1   3
BRANCH   1  43
ATOM     43  C15 non d ame     -11.671  10.585  69.468  0.00  0.00     0.240 C 
ATOM     44  O5  non d ame     -12.287  10.703  68.457  0.00  0.00    -0.271 OA
ATOM     45  N6  non d ame     -11.615  11.715  70.438  0.00  0.00    -0.355 N 
ATOM     46  H46 non d ame     -11.099  11.626  71.301  0.00  0.00     0.162 HD
BRANCH  45  47
ATOM     47  C20 non d ame     -12.320  12.979  70.132  0.00  0.00     0.013 C 
ATOM     48  H30 non d ame     -12.995  12.792  69.296  0.00  0.00     0.072 H 
BRANCH  47  49
ATOM     49  C21 non d ame     -11.309  14.037  69.753  0.00  0.00    -0.038 C 
ATOM     50  H31 non d ame     -11.889  14.869  69.352  0.00  0.00     0.036 H 
ATOM     51  H32 non d ame     -10.689  14.181  70.639  0.00  0.00     0.036 H 
BRANCH  49  52
ATOM     52  C22 non d ame     -10.359  13.582  68.625  0.00  0.00     0.018 C 
ATOM     53  H33 non d ame      -9.723  12.813  69.066  0.00  0.00     0.048 H 
ATOM     54  H34 non d ame     -11.001  13.339  67.778  0.00  0.00     0.048 H 
BRANCH  52  55
ATOM     55  C23 non d ame      -9.397  14.697  68.129  0.00  0.00     0.259 C 
ATOM     56  O7  non d ame      -8.780  14.557  67.124  0.00  0.00    -0.265 OA
BRANCH  55  57
ATOM     57  O8  non d ame      -9.250  15.884  68.898  0.00  0.00    -0.317 OA
BRANCH  57  58
ATOM     58  C29 non d ame      -8.148  16.706  68.500  0.00  0.00     0.052 C 
ATOM     59  H47 non d ame      -7.571  16.886  69.406  0.00  0.00     0.082 H 
ATOM     60  H48 non d ame      -7.690  16.193  67.654  0.00  0.00     0.082 H 
BRANCH  58  61
ATOM     61  C35 non d ame      -8.717  18.061  68.002  0.00  0.00    -0.034 A 
ATOM     62  C30 non d ame     -10.082  18.203  67.777  0.00  0.00    -0.075 A 
ATOM     63  C31 non d ame     -10.593  19.420  67.330  0.00  0.00    -0.082 A 
ATOM     64  H49 non d ame     -10.751  17.361  67.951  0.00  0.00     0.084 H 
ATOM     65  C32 non d ame      -9.733  20.498  67.105  0.00  0.00    -0.083 A 
ATOM     66  H50 non d ame     -11.664  19.528  67.156  0.00  0.00     0.083 H 
ATOM     67  C33 non d ame      -8.370  20.351  67.328  0.00  0.00    -0.082 A 
ATOM     68  H51 non d ame     -10.124  21.453  66.755  0.00  0.00     0.083 H 
ATOM     69  C34 non d ame      -7.856  19.136  67.777  0.00  0.00    -0.075 A 
ATOM     70  H52 non d ame      -7.701  21.193  67.149  0.00  0.00     0.083 H 
ATOM     71  H53 non d ame      -6.784  19.029  67.951  0.00  0.00     0.084 H 
ENDBRANCH  58  61
ENDBRANCH  57  58
ENDBRANCH  55  57
ENDBRANCH  52  55
ENDBRANCH  49  52
ENDBRANCH  47  49
BRANCH  47  72
ATOM     72  C24 non d ame     -13.107  13.440  71.356  0.00  0.00    -0.039 C 
ATOM     73  H35 non d ame     -14.157  13.337  71.083  0.00  0.00     0.036 H 
ATOM     74  H36 non d ame     -12.704  12.869  72.193  0.00  0.00     0.036 H 
BRANCH  72  75
ATOM     75  C25 non d ame     -12.852  14.989  71.676  0.00  0.00    -0.001 C 
ATOM     76  C26 non d ame     -11.979  15.139  73.061  0.00  0.00    -0.035 C 
ATOM     77  C27 non d ame     -12.613  16.006  73.886  0.00  0.00     0.085 C 
ATOM     78  H38 non d ame     -11.995  14.202  73.617  0.00  0.00     0.036 H 
ATOM     79  H39 non d ame     -11.029  15.633  72.854  0.00  0.00     0.036 H 
ATOM     80  N5  non d ame     -14.001  16.211  73.328  0.00  0.00    -0.049 N 
ATOM     81  H40 non d ame     -12.688  15.495  74.846  0.00  0.00     0.075 H 
ATOM     82  H41 non d ame     -12.059  16.941  73.807  0.00  0.00     0.075 H 
ATOM     83  C28 non d ame     -13.966  15.625  71.823  0.00  0.00     0.193 C 
ATOM     84  H42 non d ame     -14.620  15.635  73.882  0.00  0.00     0.280 HD
ATOM     85  H43 non d ame     -14.148  17.208  73.281  0.00  0.00     0.280 HD
ATOM     86  H44 non d ame     -13.924  16.300  70.968  0.00  0.00     0.129 H 
ATOM     87  H37 non d ame     -12.496  15.537  70.804  0.00  0.00     0.046 H 
BRANCH  83  88
ATOM     88  O6  non d ame     -15.100  14.788  71.594  0.00  0.00    -0.369 OA
ATOM     89  H45 non d ame     -14.818  13.979  71.161  0.00  0.00     0.212 HD
ENDBRANCH  83  88
ENDBRANCH  72  75
ENDBRANCH  47  72
ENDBRANCH  45  47
ENDBRANCH   1  43
BRANCH   1  90
ATOM     90  C16 non d ame     -10.752   9.099  71.277  0.00  0.00    -0.035 C 
ATOM     91  H21 non d ame      -9.810   8.564  71.400  0.00  0.00     0.037 H 
ATOM     92  H22 non d ame     -10.864  10.104  71.682  0.00  0.00     0.037 H 
BRANCH  90  93
ATOM     93  C17 non d ame     -11.850   8.222  71.958  0.00  0.00    -0.059 C 
ATOM     94  H23 non d ame     -11.458   7.889  72.918  0.00  0.00     0.038 H 
BRANCH  93  95
ATOM     95  C18 non d ame     -13.161   9.025  72.231  0.00  0.00    -0.073 C 
ATOM     96  H24 non d ame     -13.337   9.079  73.306  0.00  0.00     0.028 H 
ATOM     97  H25 non d ame     -13.061  10.033  71.829  0.00  0.00     0.028 H 
ATOM     98  H26 non d ame     -14.001   8.525  71.750  0.00  0.00     0.028 H 
ENDBRANCH  93  95
BRANCH  93  99
ATOM     99  C19 non d ame     -12.141   6.969  71.127  0.00  0.00    -0.073 C 
ATOM    100  H27 non d ame     -12.758   7.237  70.270  0.00  0.00     0.028 H 
ATOM    101  H28 non d ame     -11.202   6.538  70.779  0.00  0.00     0.028 H 
ATOM    102  H29 non d ame     -12.669   6.241  71.742  0.00  0.00     0.028 H 
ENDBRANCH  93  99
ENDBRANCH  90  93
ENDBRANCH   1  90
TORSDOF 26
ENDMDL
MODEL 7
REMARK VINA RESULT:      -7.3      3.515      7.331
REMARK  26 active torsions:
REMARK  status: ('A' for Active; 'I' for Inactive)
REMARK    1  A    between atoms: C2_2  and  C3_3 
REMARK    2  A    between atoms: C4_6  and  C5_7 
REMARK       I    between atoms: C5_7  and  N2_9 
REMARK    3  A    between atoms: N2_9  and  C6_10 
REMARK    4  A    between atoms: C6_10  and  C7_11 
REMARK    5  A    between atoms: C6_10  and  C8_13 
REMARK       I    between atoms: C7_11  and  N3_14 
REMARK    6  A    between atoms: N3_14  and  C9_15 
REMARK    7  A    between atoms: C9_15  and  C10_16 
REMARK    8  A    between atoms: C9_15  and  C11_18 
REMARK       I    between atoms: C10_16  and  N4_21 
REMARK    9  A    between atoms: C11_18  and  C12_19 
REMARK   10  A    between atoms: C11_18  and  C13_20 
REMARK   11  A    between atoms: N4_21  and  C14_22 
REMARK   12  A    between atoms: C14_22  and  C15_23 
REMARK   13  A    between atoms: C14_22  and  C16_25 
REMARK       I    between atoms: C15_23  and  N6_40 
REMARK   14  A    between atoms: C16_25  and  C17_26 
REMARK   15  A    between atoms: C17_26  and  C18_27 
REMARK   16  A    between atoms: C17_26  and  C19_28 
REMARK   17  A    between atoms: C20_29  and  C21_30 
REMARK   18  A    between atoms: C20_29  and  C24_33 
REMARK   19  A    between atoms: C20_29  and  N6_40 
REMARK   20  A    between atoms: C21_30  and  C22_31 
REMARK   21  A    between atoms: C22_31  and  C23_32 
REMARK   22  A    between atoms: C23_32  and  O8_43 
REMARK   23  A    between atoms: C24_33  and  C25_34 
REMARK   24  A    between atoms: C28_38  and  O6_39 
REMARK   25  A    between atoms: C29_42  and  O8_43 
REMARK   26  A    between atoms: C29_42  and  C35_49 
ROOT
ATOM      1  C14 non d ame      -6.614  13.977  68.004  0.00  0.00     0.089 C 
ATOM      2  H20 non d ame      -6.399  13.890  66.939  0.00  0.00     0.087 H 
ENDROOT
BRANCH   1   3
ATOM      3  N4  non d ame      -6.901  15.377  68.281  0.00  0.00    -0.346 N 
ATOM      4  C10 non d ame      -6.137  16.466  67.570  0.00  0.00     0.241 C 
ATOM      5  O4  non d ame      -5.293  16.190  66.782  0.00  0.00    -0.271 OA
ATOM      6  H19 non d ame      -7.621  15.589  68.957  0.00  0.00     0.163 HD
BRANCH   4   7
ATOM      7  C9  non d ame      -6.451  17.909  67.865  0.00  0.00     0.092 C 
ATOM      8  H11 non d ame      -5.932  18.543  67.145  0.00  0.00     0.088 H 
BRANCH   7   9
ATOM      9  N3  non d ame      -7.887  18.143  67.689  0.00  0.00    -0.346 N 
ATOM     10  C7  non d ame      -8.403  18.529  66.400  0.00  0.00     0.240 C 
ATOM     11  O3  non d ame      -7.676  18.658  65.491  0.00  0.00    -0.271 OA
ATOM     12  H10 non d ame      -8.526  18.037  68.464  0.00  0.00     0.163 HD
BRANCH  10  13
ATOM     13  C6  non d ame      -9.933  18.780  66.221  0.00  0.00     0.086 C 
ATOM     14  H6  non d ame     -10.148  19.648  65.598  0.00  0.00     0.086 H 
BRANCH  13  15
ATOM     15  N2  non d ame     -10.523  17.632  65.552  0.00  0.00    -0.343 N 
ATOM     16  C5  non d ame     -10.390  16.302  66.151  0.00  0.00     0.273 C 
ATOM     17  O2  non d ame      -9.805  16.166  67.169  0.00  0.00    -0.266 OA
ATOM     18  H5  non d ame     -11.019  17.756  64.682  0.00  0.00     0.163 HD
BRANCH  16  19
ATOM     19  C4  non d ame     -11.011  15.080  65.457  0.00  0.00     0.154 A 
ATOM     20  C1  non d ame     -10.326  14.072  64.706  0.00  0.00    -0.017 A 
ATOM     21  C2  non d ame     -11.339  13.182  64.283  0.00  0.00     0.077 A 
ATOM     22  H1  non d ame      -9.258  13.997  64.498  0.00  0.00     0.091 H 
ATOM     23  O1  non d ame     -12.469  13.634  64.745  0.00  0.00    -0.218 OA
ATOM     24  N1  non d ame     -12.303  14.741  65.432  0.00  0.00    -0.123 NA
BRANCH  21  25
ATOM     25  C3  non d ame     -11.144  11.926  63.446  0.00  0.00    -0.029 C 
ATOM     26  H2  non d ame     -10.254  12.037  62.824  0.00  0.00     0.036 H 
ATOM     27  H3  non d ame     -11.021  11.066  64.104  0.00  0.00     0.036 H 
ATOM     28  H4  non d ame     -12.015  11.773  62.809  0.00  0.00     0.036 H 
ENDBRANCH  21  25
ENDBRANCH  16  19
ENDBRANCH  13  15
BRANCH  13  29
ATOM     29  C8  non d ame     -10.574  18.976  67.571  0.00  0.00    -0.049 C 
ATOM     30  H7  non d ame     -10.285  19.947  67.973  0.00  0.00     0.030 H 
ATOM     31  H8  non d ame     -11.659  18.935  67.466  0.00  0.00     0.030 H 
ATOM     32  H9  non d ame     -10.244  18.190  68.248  0.00  0.00     0.030 H 
ENDBRANCH  13  29
ENDBRANCH  10  13
ENDBRANCH   7   9
BRANCH   7  33
ATOM     33  C11 non d ame      -6.049  18.239  69.332  0.00  0.00    -0.033 C 
ATOM     34  H12 non d ame      -6.479  17.468  69.972  0.00  0.00     0.042 H 
BRANCH  33  35
ATOM     35  C12 non d ame      -4.500  18.194  69.521  0.00  0.00    -0.071 C 
ATOM     36  H13 non d ame      -4.243  17.402  70.225  0.00  0.00     0.028 H 
ATOM     37  H14 non d ame      -4.023  17.996  68.562  0.00  0.00     0.028 H 
ATOM     38  H15 non d ame      -4.154  19.152  69.908  0.00  0.00     0.028 H 
ENDBRANCH  33  35
BRANCH  33  39
ATOM     39  C13 non d ame      -6.634  19.618  69.775  0.00  0.00    -0.071 C 
ATOM     40  H16 non d ame      -7.718  19.606  69.663  0.00  0.00     0.028 H 
ATOM     41  H17 non d ame      -6.378  19.804  70.818  0.00  0.00     0.028 H 
ATOM     42  H18 non d ame      -6.213  20.407  69.152  0.00  0.00     0.028 H 
ENDBRANCH  33  39
ENDBRANCH   7  33
ENDBRANCH   4   7
ENDBRANCH   1   3
BRANCH   1  43
ATOM     43  C15 non d ame      -7.845  13.126  68.427  0.00  0.00     0.240 C 
ATOM     44  O5  non d ame      -7.683  12.087  68.984  0.00  0.00    -0.271 OA
ATOM     45  N6  non d ame      -9.227  13.609  68.148  0.00  0.00    -0.355 N 
ATOM     46  H46 non d ame      -9.378  14.491  67.680  0.00  0.00     0.162 HD
BRANCH  45  47
ATOM     47  C20 non d ame     -10.388  12.789  68.557  0.00  0.00     0.013 C 
ATOM     48  H30 non d ame     -10.133  12.293  69.494  0.00  0.00     0.072 H 
BRANCH  47  49
ATOM     49  C21 non d ame     -10.674  11.757  67.489  0.00  0.00    -0.038 C 
ATOM     50  H31 non d ame     -11.529  12.140  66.932  0.00  0.00     0.036 H 
ATOM     51  H32 non d ame      -9.723  11.589  66.982  0.00  0.00     0.036 H 
BRANCH  49  52
ATOM     52  C22 non d ame     -11.105  10.394  68.072  0.00  0.00     0.018 C 
ATOM     53  H33 non d ame     -11.606  10.620  69.014  0.00  0.00     0.048 H 
ATOM     54  H34 non d ame     -11.648   9.890  67.273  0.00  0.00     0.048 H 
BRANCH  52  55
ATOM     55  C23 non d ame      -9.913   9.465  68.435  0.00  0.00     0.259 C 
ATOM     56  O7  non d ame      -8.997   9.340  67.689  0.00  0.00    -0.265 OA
BRANCH  55  57
ATOM     57  O8  non d ame      -9.936   8.751  69.665  0.00  0.00    -0.317 OA
BRANCH  57  58
ATOM     58  C29 non d ame     -10.431   9.510  70.771  0.00  0.00     0.052 C 
ATOM     59  H47 non d ame      -9.716   9.358  71.579  0.00  0.00     0.082 H 
ATOM     60  H48 non d ame     -10.610  10.513  70.384  0.00  0.00     0.082 H 
BRANCH  58  61
ATOM     61  C35 non d ame     -11.792   8.900  71.200  0.00  0.00    -0.034 A 
ATOM     62  C30 non d ame     -12.023   7.537  71.046  0.00  0.00    -0.075 A 
ATOM     63  C31 non d ame     -13.246   6.989  71.431  0.00  0.00    -0.082 A 
ATOM     64  H49 non d ame     -11.247   6.899  70.625  0.00  0.00     0.084 H 
ATOM     65  C32 non d ame     -14.240   7.810  71.969  0.00  0.00    -0.083 A 
ATOM     66  H50 non d ame     -13.423   5.920  71.311  0.00  0.00     0.083 H 
ATOM     67  C33 non d ame     -14.007   9.170  72.118  0.00  0.00    -0.082 A 
ATOM     68  H51 non d ame     -15.199   7.389  72.273  0.00  0.00     0.083 H 
ATOM     69  C34 non d ame     -12.785   9.722  71.737  0.00  0.00    -0.075 A 
ATOM     70  H52 non d ame     -14.785   9.808  72.536  0.00  0.00     0.083 H 
ATOM     71  H53 non d ame     -12.608  10.792  71.858  0.00  0.00     0.084 H 
ENDBRANCH  58  61
ENDBRANCH  57  58
ENDBRANCH  55  57
ENDBRANCH  52  55
ENDBRANCH  49  52
ENDBRANCH  47  49
BRANCH  47  72
ATOM     72  C24 non d ame     -11.611  13.682  68.744  0.00  0.00    -0.039 C 
ATOM     73  H35 non d ame     -11.466  14.521  68.063  0.00  0.00     0.036 H 
ATOM     74  H36 non d ame     -12.473  13.025  68.622  0.00  0.00     0.036 H 
BRANCH  72  75
ATOM     75  C25 non d ame     -11.684  14.285  70.227  0.00  0.00    -0.001 C 
ATOM     76  C26 non d ame     -12.710  13.389  71.148  0.00  0.00    -0.035 C 
ATOM     77  C27 non d ame     -13.602  14.217  71.741  0.00  0.00     0.085 C 
ATOM     78  H38 non d ame     -13.332  12.761  70.509  0.00  0.00     0.036 H 
ATOM     79  H39 non d ame     -12.172  12.949  71.987  0.00  0.00     0.036 H 
ATOM     80  N5  non d ame     -13.483  15.557  71.056  0.00  0.00    -0.049 N 
ATOM     81  H40 non d ame     -14.583  13.794  71.525  0.00  0.00     0.075 H 
ATOM     82  H41 non d ame     -13.265  14.316  72.773  0.00  0.00     0.075 H 
ATOM     83  C28 non d ame     -12.105  15.506  70.215  0.00  0.00     0.193 C 
ATOM     84  H42 non d ame     -14.254  15.616  70.406  0.00  0.00     0.280 HD
ATOM     85  H43 non d ame     -13.387  16.246  71.788  0.00  0.00     0.280 HD
ATOM     86  H44 non d ame     -11.218  16.027  70.575  0.00  0.00     0.129 H 
ATOM     87  H37 non d ame     -10.695  14.487  70.640  0.00  0.00     0.046 H 
BRANCH  83  88
ATOM     88  O6  non d ame     -12.321  15.990  68.888  0.00  0.00    -0.369 OA
ATOM     89  H45 non d ame     -11.875  16.832  68.779  0.00  0.00     0.212 HD
ENDBRANCH  83  88
ENDBRANCH  72  75
ENDBRANCH  47  72
ENDBRANCH  45  47
ENDBRANCH   1  43
BRANCH   1  90
ATOM     90  C16 non d ame      -5.397  13.551  68.811  0.00  0.00    -0.035 C 
ATOM     91  H21 non d ame      -5.633  12.554  69.184  0.00  0.00     0.037 H 
ATOM     92  H22 non d ame      -4.546  13.695  68.146  0.00  0.00     0.037 H 
BRANCH  90  93
ATOM     93  C17 non d ame      -5.134  14.441  70.066  0.00  0.00    -0.059 C 
ATOM     94  H23 non d ame      -5.662  15.383  69.919  0.00  0.00     0.038 H 
BRANCH  93  95
ATOM     95  C18 non d ame      -5.679  13.789  71.376  0.00  0.00    -0.073 C 
ATOM     96  H24 non d ame      -5.903  12.738  71.193  0.00  0.00     0.028 H 
ATOM     97  H25 non d ame      -4.927  13.867  72.161  0.00  0.00     0.028 H 
ATOM     98  H26 non d ame      -6.586  14.305  71.690  0.00  0.00     0.028 H 
ENDBRANCH  93  95
BRANCH  93  99
ATOM     99  C19 non d ame      -3.645  14.771  70.200  0.00  0.00    -0.073 C 
ATOM    100  H27 non d ame      -3.470  15.797  69.875  0.00  0.00     0.028 H 
ATOM    101  H28 non d ame      -3.341  14.662  71.241  0.00  0.00     0.028 H 
ATOM    102  H29 non d ame      -3.065  14.090  69.578  0.00  0.00     0.028 H 
ENDBRANCH  93  99
ENDBRANCH  90  93
ENDBRANCH   1  90
TORSDOF 26
ENDMDL
MODEL 8
REMARK VINA RESULT:      -7.2      2.360      6.542
REMARK  26 active torsions:
REMARK  status: ('A' for Active; 'I' for Inactive)
REMARK    1  A    between atoms: C2_2  and  C3_3 
REMARK    2  A    between atoms: C4_6  and  C5_7 
REMARK       I    between atoms: C5_7  and  N2_9 
REMARK    3  A    between atoms: N2_9  and  C6_10 
REMARK    4  A    between atoms: C6_10  and  C7_11 
REMARK    5  A    between atoms: C6_10  and  C8_13 
REMARK       I    between atoms: C7_11  and  N3_14 
REMARK    6  A    between atoms: N3_14  and  C9_15 
REMARK    7  A    between atoms: C9_15  and  C10_16 
REMARK    8  A    between atoms: C9_15  and  C11_18 
REMARK       I    between atoms: C10_16  and  N4_21 
REMARK    9  A    between atoms: C11_18  and  C12_19 
REMARK   10  A    between atoms: C11_18  and  C13_20 
REMARK   11  A    between atoms: N4_21  and  C14_22 
REMARK   12  A    between atoms: C14_22  and  C15_23 
REMARK   13  A    between atoms: C14_22  and  C16_25 
REMARK       I    between atoms: C15_23  and  N6_40 
REMARK   14  A    between atoms: C16_25  and  C17_26 
REMARK   15  A    between atoms: C17_26  and  C18_27 
REMARK   16  A    between atoms: C17_26  and  C19_28 
REMARK   17  A    between atoms: C20_29  and  C21_30 
REMARK   18  A    between atoms: C20_29  and  C24_33 
REMARK   19  A    between atoms: C20_29  and  N6_40 
REMARK   20  A    between atoms: C21_30  and  C22_31 
REMARK   21  A    between atoms: C22_31  and  C23_32 
REMARK   22  A    between atoms: C23_32  and  O8_43 
REMARK   23  A    between atoms: C24_33  and  C25_34 
REMARK   24  A    between atoms: C28_38  and  O6_39 
REMARK   25  A    between atoms: C29_42  and  O8_43 
REMARK   26  A    between atoms: C29_42  and  C35_49 
ROOT
ATOM      1  C14 non d ame     -10.904   9.021  69.582  0.00  0.00     0.089 C 
ATOM      2  H20 non d ame     -11.859   8.639  69.941  0.00  0.00     0.087 H 
ENDROOT
BRANCH   1   3
ATOM      3  N4  non d ame     -10.280   7.970  68.792  0.00  0.00    -0.346 N 
ATOM      4  C10 non d ame     -10.752   6.543  68.915  0.00  0.00     0.241 C 
ATOM      5  O4  non d ame     -11.634   6.264  69.659  0.00  0.00    -0.271 OA
ATOM      6  H19 non d ame      -9.529   8.227  68.166  0.00  0.00     0.163 HD
BRANCH   4   7
ATOM      7  C9  non d ame     -10.099   5.468  68.086  0.00  0.00     0.092 C 
ATOM      8  H11 non d ame     -10.852   4.992  67.458  0.00  0.00     0.088 H 
BRANCH   7   9
ATOM      9  N3  non d ame      -9.110   6.075  67.190  0.00  0.00    -0.346 N 
ATOM     10  C7  non d ame      -9.087   5.719  65.793  0.00  0.00     0.240 C 
ATOM     11  O3  non d ame      -9.857   4.944  65.373  0.00  0.00    -0.271 OA
ATOM     12  H10 non d ame      -8.438   6.744  67.539  0.00  0.00     0.163 HD
BRANCH  10  13
ATOM     13  C6  non d ame      -8.030   6.366  64.846  0.00  0.00     0.086 C 
ATOM     14  H6  non d ame      -7.771   5.726  64.002  0.00  0.00     0.086 H 
BRANCH  13  15
ATOM     15  N2  non d ame      -8.584   7.588  64.286  0.00  0.00    -0.343 N 
ATOM     16  C5  non d ame      -8.796   8.747  65.156  0.00  0.00     0.273 C 
ATOM     17  O2  non d ame      -8.519   8.686  66.303  0.00  0.00    -0.266 OA
ATOM     18  H5  non d ame      -8.819   7.631  63.306  0.00  0.00     0.163 HD
BRANCH  16  19
ATOM     19  C4  non d ame      -9.379  10.047  64.577  0.00  0.00     0.154 A 
ATOM     20  C1  non d ame      -9.608  11.276  65.273  0.00  0.00    -0.017 A 
ATOM     21  C2  non d ame     -10.150  12.148  64.303  0.00  0.00     0.077 A 
ATOM     22  H1  non d ame      -9.412  11.502  66.322  0.00  0.00     0.091 H 
ATOM     23  O1  non d ame     -10.218  11.487  63.183  0.00  0.00    -0.218 OA
ATOM     24  N1  non d ame      -9.774  10.258  63.319  0.00  0.00    -0.123 NA
BRANCH  21  25
ATOM     25  C3  non d ame     -10.574  13.593  64.525  0.00  0.00    -0.029 C 
ATOM     26  H2  non d ame     -10.587  14.120  63.570  0.00  0.00     0.036 H 
ATOM     27  H3  non d ame     -11.570  13.616  64.966  0.00  0.00     0.036 H 
ATOM     28  H4  non d ame      -9.868  14.080  65.198  0.00  0.00     0.036 H 
ENDBRANCH  21  25
ENDBRANCH  16  19
ENDBRANCH  13  15
BRANCH  13  29
ATOM     29  C8  non d ame      -6.777   6.677  65.624  0.00  0.00    -0.049 C 
ATOM     30  H7  non d ame      -6.503   5.815  66.232  0.00  0.00     0.030 H 
ATOM     31  H8  non d ame      -5.966   6.905  64.930  0.00  0.00     0.030 H 
ATOM     32  H9  non d ame      -6.954   7.535  66.270  0.00  0.00     0.030 H 
ENDBRANCH  13  29
ENDBRANCH  10  13
ENDBRANCH   7   9
BRANCH   7  33
ATOM     33  C11 non d ame      -9.389   4.448  69.024  0.00  0.00    -0.033 C 
ATOM     34  H12 non d ame      -9.979   4.378  69.938  0.00  0.00     0.042 H 
BRANCH  33  35
ATOM     35  C12 non d ame      -9.343   3.025  68.385  0.00  0.00    -0.071 C 
ATOM     36  H13 non d ame      -8.969   3.098  67.363  0.00  0.00     0.028 H 
ATOM     37  H14 non d ame      -8.681   2.386  68.969  0.00  0.00     0.028 H 
ATOM     38  H15 non d ame     -10.345   2.599  68.377  0.00  0.00     0.028 H 
ENDBRANCH  33  35
BRANCH  33  39
ATOM     39  C13 non d ame      -7.958   4.944  69.408  0.00  0.00    -0.071 C 
ATOM     40  H16 non d ame      -7.477   4.204  70.047  0.00  0.00     0.028 H 
ATOM     41  H17 non d ame      -7.366   5.083  68.503  0.00  0.00     0.028 H 
ATOM     42  H18 non d ame      -8.034   5.891  69.942  0.00  0.00     0.028 H 
ENDBRANCH  33  39
ENDBRANCH   7  33
ENDBRANCH   4   7
ENDBRANCH   1   3
BRANCH   1  43
ATOM     43  C15 non d ame     -11.074  10.280  68.684  0.00  0.00     0.240 C 
ATOM     44  O5  non d ame     -11.557  10.174  67.602  0.00  0.00    -0.271 OA
ATOM     45  N6  non d ame     -10.643  11.620  69.175  0.00  0.00    -0.355 N 
ATOM     46  H46 non d ame     -10.236  11.723  70.094  0.00  0.00     0.162 HD
BRANCH  45  47
ATOM     47  C20 non d ame     -10.813  12.807  68.310  0.00  0.00     0.013 C 
ATOM     48  H30 non d ame     -10.962  12.458  67.288  0.00  0.00     0.072 H 
BRANCH  47  49
ATOM     49  C21 non d ame      -9.570  13.664  68.387  0.00  0.00    -0.038 C 
ATOM     50  H31 non d ame      -9.530  14.211  67.445  0.00  0.00     0.036 H 
ATOM     51  H32 non d ame      -9.645  14.206  69.331  0.00  0.00     0.036 H 
BRANCH  49  52
ATOM     52  C22 non d ame      -8.272  12.832  68.465  0.00  0.00     0.018 C 
ATOM     53  H33 non d ame      -8.077  12.686  69.528  0.00  0.00     0.048 H 
ATOM     54  H34 non d ame      -8.435  11.970  67.817  0.00  0.00     0.048 H 
BRANCH  52  55
ATOM     55  C23 non d ame      -7.024  13.565  67.898  0.00  0.00     0.259 C 
ATOM     56  O7  non d ame      -6.372  13.067  67.038  0.00  0.00    -0.265 OA
BRANCH  55  57
ATOM     57  O8  non d ame      -6.660  14.833  68.427  0.00  0.00    -0.317 OA
BRANCH  57  58
ATOM     58  C29 non d ame      -6.551  15.867  67.444  0.00  0.00     0.052 C 
ATOM     59  H47 non d ame      -5.806  16.562  67.827  0.00  0.00     0.082 H 
ATOM     60  H48 non d ame      -6.382  15.355  66.496  0.00  0.00     0.082 H 
BRANCH  58  61
ATOM     61  C35 non d ame      -7.916  16.601  67.367  0.00  0.00    -0.034 A 
ATOM     62  C30 non d ame      -8.370  17.341  68.453  0.00  0.00    -0.075 A 
ATOM     63  C31 non d ame      -9.596  18.001  68.385  0.00  0.00    -0.082 A 
ATOM     64  H49 non d ame      -7.766  17.405  69.358  0.00  0.00     0.084 H 
ATOM     65  C32 non d ame     -10.371  17.916  67.225  0.00  0.00    -0.083 A 
ATOM     66  H50 non d ame      -9.949  18.581  69.238  0.00  0.00     0.083 H 
ATOM     67  C33 non d ame      -9.915  17.173  66.144  0.00  0.00    -0.082 A 
ATOM     68  H51 non d ame     -11.331  18.429  67.163  0.00  0.00     0.083 H 
ATOM     69  C34 non d ame      -8.689  16.514  66.208  0.00  0.00    -0.075 A 
ATOM     70  H52 non d ame     -10.523  17.107  65.241  0.00  0.00     0.083 H 
ATOM     71  H53 non d ame      -8.337  15.933  65.354  0.00  0.00     0.084 H 
ENDBRANCH  58  61
ENDBRANCH  57  58
ENDBRANCH  55  57
ENDBRANCH  52  55
ENDBRANCH  49  52
ENDBRANCH  47  49
BRANCH  47  72
ATOM     72  C24 non d ame     -12.021  13.617  68.776  0.00  0.00    -0.039 C 
ATOM     73  H35 non d ame     -12.085  14.463  68.093  0.00  0.00     0.036 H 
ATOM     74  H36 non d ame     -12.843  12.903  68.838  0.00  0.00     0.036 H 
BRANCH  72  75
ATOM     75  C25 non d ame     -11.802  14.213  70.247  0.00  0.00    -0.001 C 
ATOM     76  C26 non d ame     -12.746  13.406  71.326  0.00  0.00    -0.035 C 
ATOM     77  C27 non d ame     -13.453  14.308  72.047  0.00  0.00     0.085 C 
ATOM     78  H38 non d ame     -13.515  12.842  70.799  0.00  0.00     0.036 H 
ATOM     79  H39 non d ame     -12.123  12.913  72.073  0.00  0.00     0.036 H 
ATOM     80  N5  non d ame     -13.325  15.636  71.342  0.00  0.00    -0.049 N 
ATOM     81  H40 non d ame     -14.490  13.976  71.993  0.00  0.00     0.075 H 
ATOM     82  H41 non d ame     -12.949  14.368  73.012  0.00  0.00     0.075 H 
ATOM     83  C28 non d ame     -12.109  15.467  70.293  0.00  0.00     0.193 C 
ATOM     84  H42 non d ame     -14.181  15.769  70.823  0.00  0.00     0.280 HD
ATOM     85  H43 non d ame     -13.052  16.308  72.045  0.00  0.00     0.280 HD
ATOM     86  H44 non d ame     -11.132  15.903  70.504  0.00  0.00     0.129 H 
ATOM     87  H37 non d ame     -10.747  14.321  70.496  0.00  0.00     0.046 H 
BRANCH  83  88
ATOM     88  O6  non d ame     -12.487  15.977  69.014  0.00  0.00    -0.369 OA
ATOM     89  H45 non d ame     -12.049  16.817  68.863  0.00  0.00     0.212 HD
ENDBRANCH  83  88
ENDBRANCH  72  75
ENDBRANCH  47  72
ENDBRANCH  45  47
ENDBRANCH   1  43
BRANCH   1  90
ATOM     90  C16 non d ame     -10.006   9.353  70.763  0.00  0.00    -0.035 C 
ATOM     91  H21 non d ame      -9.050   8.877  70.542  0.00  0.00     0.037 H 
ATOM     92  H22 non d ame     -10.062  10.436  70.873  0.00  0.00     0.037 H 
BRANCH  90  93
ATOM     93  C17 non d ame     -10.499   8.746  72.115  0.00  0.00    -0.059 C 
ATOM     94  H23 non d ame     -10.247   9.452  72.906  0.00  0.00     0.038 H 
BRANCH  93  95
ATOM     95  C18 non d ame     -12.046   8.534  72.138  0.00  0.00    -0.073 C 
ATOM     96  H24 non d ame     -12.487   8.981  71.246  0.00  0.00     0.028 H 
ATOM     97  H25 non d ame     -12.266   7.467  72.155  0.00  0.00     0.028 H 
ATOM     98  H26 non d ame     -12.464   9.005  73.027  0.00  0.00     0.028 H 
ENDBRANCH  93  95
BRANCH  93  99
ATOM     99  C19 non d ame      -9.765   7.438  72.425  0.00  0.00    -0.073 C 
ATOM    100  H27 non d ame      -8.874   7.365  71.802  0.00  0.00     0.028 H 
ATOM    101  H28 non d ame      -9.476   7.424  73.476  0.00  0.00     0.028 H 
ATOM    102  H29 non d ame     -10.423   6.595  72.217  0.00  0.00     0.028 H 
ENDBRANCH  93  99
ENDBRANCH  90  93
ENDBRANCH   1  90
TORSDOF 26
ENDMDL
MODEL 9
REMARK VINA RESULT:      -7.2      2.559      8.419
REMARK  26 active torsions:
REMARK  status: ('A' for Active; 'I' for Inactive)
REMARK    1  A    between atoms: C2_2  and  C3_3 
REMARK    2  A    between atoms: C4_6  and  C5_7 
REMARK       I    between atoms: C5_7  and  N2_9 
REMARK    3  A    between atoms: N2_9  and  C6_10 
REMARK    4  A    between atoms: C6_10  and  C7_11 
REMARK    5  A    between atoms: C6_10  and  C8_13 
REMARK       I    between atoms: C7_11  and  N3_14 
REMARK    6  A    between atoms: N3_14  and  C9_15 
REMARK    7  A    between atoms: C9_15  and  C10_16 
REMARK    8  A    between atoms: C9_15  and  C11_18 
REMARK       I    between atoms: C10_16  and  N4_21 
REMARK    9  A    between atoms: C11_18  and  C12_19 
REMARK   10  A    between atoms: C11_18  and  C13_20 
REMARK   11  A    between atoms: N4_21  and  C14_22 
REMARK   12  A    between atoms: C14_22  and  C15_23 
REMARK   13  A    between atoms: C14_22  and  C16_25 
REMARK       I    between atoms: C15_23  and  N6_40 
REMARK   14  A    between atoms: C16_25  and  C17_26 
REMARK   15  A    between atoms: C17_26  and  C18_27 
REMARK   16  A    between atoms: C17_26  and  C19_28 
REMARK   17  A    between atoms: C20_29  and  C21_30 
REMARK   18  A    between atoms: C20_29  and  C24_33 
REMARK   19  A    between atoms: C20_29  and  N6_40 
REMARK   20  A    between atoms: C21_30  and  C22_31 
REMARK   21  A    between atoms: C22_31  and  C23_32 
REMARK   22  A    between atoms: C23_32  and  O8_43 
REMARK   23  A    between atoms: C24_33  and  C25_34 
REMARK   24  A    between atoms: C28_38  and  O6_39 
REMARK   25  A    between atoms: C29_42  and  O8_43 
REMARK   26  A    between atoms: C29_42  and  C35_49 
ROOT
ATOM      1  C14 non d ame     -10.608  10.614  67.543  0.00  0.00     0.089 C 
ATOM      2  H20 non d ame      -9.564  10.666  67.849  0.00  0.00     0.087 H 
ENDROOT
BRANCH   1   3
ATOM      3  N4  non d ame     -11.232   9.534  68.292  0.00  0.00    -0.346 N 
ATOM      4  C10 non d ame     -10.809   9.248  69.711  0.00  0.00     0.241 C 
ATOM      5  O4  non d ame      -9.962   9.899  70.228  0.00  0.00    -0.271 OA
ATOM      6  H19 non d ame     -11.949   8.989  67.833  0.00  0.00     0.163 HD
BRANCH   4   7
ATOM      7  C9  non d ame     -11.468   8.129  70.473  0.00  0.00     0.092 C 
ATOM      8  H11 non d ame     -12.386   7.839  69.962  0.00  0.00     0.088 H 
BRANCH   7   9
ATOM      9  N3  non d ame     -10.589   6.956  70.481  0.00  0.00    -0.346 N 
ATOM     10  C7  non d ame     -10.616   6.027  69.378  0.00  0.00     0.240 C 
ATOM     11  O3  non d ame     -11.341   6.207  68.477  0.00  0.00    -0.271 OA
ATOM     12  H10 non d ame      -9.959   6.788  71.252  0.00  0.00     0.163 HD
BRANCH  10  13
ATOM     13  C6  non d ame      -9.679   4.780  69.394  0.00  0.00     0.086 C 
ATOM     14  H6  non d ame     -10.156   3.889  68.984  0.00  0.00     0.086 H 
BRANCH  13  15
ATOM     15  N2  non d ame      -8.519   5.051  68.562  0.00  0.00    -0.343 N 
ATOM     16  C5  non d ame      -8.487   4.553  67.185  0.00  0.00     0.273 C 
ATOM     17  O2  non d ame      -9.398   3.933  66.757  0.00  0.00    -0.266 OA
ATOM     18  H5  non d ame      -7.744   5.580  68.935  0.00  0.00     0.163 HD
BRANCH  16  19
ATOM     19  C4  non d ame      -7.268   4.834  66.292  0.00  0.00     0.154 A 
ATOM     20  C1  non d ame      -5.945   4.311  66.446  0.00  0.00    -0.017 A 
ATOM     21  C2  non d ame      -5.206   4.870  65.380  0.00  0.00     0.077 A 
ATOM     22  H1  non d ame      -5.577   3.629  67.214  0.00  0.00     0.091 H 
ATOM     23  O1  non d ame      -6.019   5.624  64.698  0.00  0.00    -0.218 OA
ATOM     24  N1  non d ame      -7.228   5.619  65.212  0.00  0.00    -0.123 NA
BRANCH  21  25
ATOM     25  C3  non d ame      -3.732   4.632  65.082  0.00  0.00    -0.029 C 
ATOM     26  H2  non d ame      -3.635   4.052  64.163  0.00  0.00     0.036 H 
ATOM     27  H3  non d ame      -3.227   5.590  64.961  0.00  0.00     0.036 H 
ATOM     28  H4  non d ame      -3.277   4.084  65.907  0.00  0.00     0.036 H 
ENDBRANCH  21  25
ENDBRANCH  16  19
ENDBRANCH  13  15
BRANCH  13  29
ATOM     29  C8  non d ame      -9.244   4.492  70.808  0.00  0.00    -0.049 C 
ATOM     30  H7  non d ame     -10.044   3.974  71.337  0.00  0.00     0.030 H 
ATOM     31  H8  non d ame      -8.352   3.863  70.792  0.00  0.00     0.030 H 
ATOM     32  H9  non d ame      -9.019   5.428  71.317  0.00  0.00     0.030 H 
ENDBRANCH  13  29
ENDBRANCH  10  13
ENDBRANCH   7   9
BRANCH   7  33
ATOM     33  C11 non d ame     -11.733   8.585  71.938  0.00  0.00    -0.033 C 
ATOM     34  H12 non d ame     -11.251   9.554  72.073  0.00  0.00     0.042 H 
BRANCH  33  35
ATOM     35  C12 non d ame     -13.258   8.779  72.206  0.00  0.00    -0.071 C 
ATOM     36  H13 non d ame     -13.813   8.614  71.283  0.00  0.00     0.028 H 
ATOM     37  H14 non d ame     -13.589   8.065  72.961  0.00  0.00     0.028 H 
ATOM     38  H15 non d ame     -13.438   9.793  72.563  0.00  0.00     0.028 H 
ENDBRANCH  33  35
BRANCH  33  39
ATOM     39  C13 non d ame     -11.102   7.584  72.958  0.00  0.00    -0.071 C 
ATOM     40  H16 non d ame     -10.032   7.775  73.039  0.00  0.00     0.028 H 
ATOM     41  H17 non d ame     -11.570   7.715  73.934  0.00  0.00     0.028 H 
ATOM     42  H18 non d ame     -11.264   6.564  72.611  0.00  0.00     0.028 H 
ENDBRANCH  33  39
ENDBRANCH   7  33
ENDBRANCH   4   7
ENDBRANCH   1   3
BRANCH   1  43
ATOM     43  C15 non d ame     -11.376  11.933  67.845  0.00  0.00     0.240 C 
ATOM     44  O5  non d ame     -12.197  12.328  67.080  0.00  0.00    -0.271 OA
ATOM     45  N6  non d ame     -11.095  12.701  69.091  0.00  0.00    -0.355 N 
ATOM     46  H46 non d ame     -10.403  12.373  69.750  0.00  0.00     0.162 HD
BRANCH  45  47
ATOM     47  C20 non d ame     -11.834  13.952  69.364  0.00  0.00     0.013 C 
ATOM     48  H30 non d ame     -12.593  14.068  68.591  0.00  0.00     0.072 H 
BRANCH  47  49
ATOM     49  C21 non d ame     -10.874  15.119  69.324  0.00  0.00    -0.038 C 
ATOM     50  H31 non d ame     -11.011  15.647  70.268  0.00  0.00     0.036 H 
ATOM     51  H32 non d ame      -9.902  14.692  69.073  0.00  0.00     0.036 H 
BRANCH  49  52
ATOM     52  C22 non d ame     -11.206  16.131  68.205  0.00  0.00     0.018 C 
ATOM     53  H33 non d ame     -12.235  15.919  67.912  0.00  0.00     0.048 H 
ATOM     54  H34 non d ame     -10.944  17.110  68.606  0.00  0.00     0.048 H 
BRANCH  52  55
ATOM     55  C23 non d ame     -10.349  15.948  66.922  0.00  0.00     0.259 C 
ATOM     56  O7  non d ame      -9.836  14.903  66.684  0.00  0.00    -0.265 OA
BRANCH  55  57
ATOM     57  O8  non d ame     -10.173  17.048  66.038  0.00  0.00    -0.317 OA
BRANCH  57  58
ATOM     58  C29 non d ame     -10.468  18.320  66.624  0.00  0.00     0.052 C 
ATOM     59  H47 non d ame     -10.866  18.932  65.816  0.00  0.00     0.082 H 
ATOM     60  H48 non d ame     -11.083  18.105  67.499  0.00  0.00     0.082 H 
BRANCH  58  61
ATOM     61  C35 non d ame      -9.132  18.947  67.105  0.00  0.00    -0.034 A 
ATOM     62  C30 non d ame      -8.223  19.444  66.177  0.00  0.00    -0.075 A 
ATOM     63  C31 non d ame      -7.024  20.008  66.608  0.00  0.00    -0.082 A 
ATOM     64  H49 non d ame      -8.450  19.393  65.113  0.00  0.00     0.084 H 
ATOM     65  C32 non d ame      -6.733  20.071  67.974  0.00  0.00    -0.083 A 
ATOM     66  H50 non d ame      -6.314  20.398  65.879  0.00  0.00     0.083 H 
ATOM     67  C33 non d ame      -7.642  19.570  68.896  0.00  0.00    -0.082 A 
ATOM     68  H51 non d ame      -5.798  20.510  68.320  0.00  0.00     0.083 H 
ATOM     69  C34 non d ame      -8.844  19.008  68.469  0.00  0.00    -0.075 A 
ATOM     70  H52 non d ame      -7.412  19.618  69.961  0.00  0.00     0.083 H 
ATOM     71  H53 non d ame      -9.553  18.618  69.200  0.00  0.00     0.084 H 
ENDBRANCH  58  61
ENDBRANCH  57  58
ENDBRANCH  55  57
ENDBRANCH  52  55
ENDBRANCH  49  52
ENDBRANCH  47  49
BRANCH  47  72
ATOM     72  C24 non d ame     -12.486  13.876  70.742  0.00  0.00    -0.039 C 
ATOM     73  H35 non d ame     -13.527  13.610  70.557  0.00  0.00     0.036 H 
ATOM     74  H36 non d ame     -11.851  13.212  71.329  0.00  0.00     0.036 H 
BRANCH  72  75
ATOM     75  C25 non d ame     -12.487  15.300  71.477  0.00  0.00    -0.001 C 
ATOM     76  C26 non d ame     -11.689  15.191  72.911  0.00  0.00    -0.035 C 
ATOM     77  C27 non d ame     -12.475  15.701  73.888  0.00  0.00     0.085 C 
ATOM     78  H38 non d ame     -11.574  14.145  73.196  0.00  0.00     0.036 H 
ATOM     79  H39 non d ame     -10.823  15.853  72.908  0.00  0.00     0.036 H 
ATOM     80  N5  non d ame     -13.861  15.848  73.309  0.00  0.00    -0.049 N 
ATOM     81  H40 non d ame     -12.496  14.943  74.672  0.00  0.00     0.075 H 
ATOM     82  H41 non d ame     -12.072  16.691  74.099  0.00  0.00     0.075 H 
ATOM     83  C28 non d ame     -13.691  15.706  71.709  0.00  0.00     0.193 C 
ATOM     84  H42 non d ame     -14.397  15.061  73.646  0.00  0.00     0.280 HD
ATOM     85  H43 non d ame     -14.161  16.789  73.517  0.00  0.00     0.280 HD
ATOM     86  H44 non d ame     -13.730  16.587  71.068  0.00  0.00     0.129 H 
ATOM     87  H37 non d ame     -12.196  16.110  70.808  0.00  0.00     0.046 H 
BRANCH  83  88
ATOM     88  O6  non d ame     -14.672  14.809  71.188  0.00  0.00    -0.369 OA
ATOM     89  H45 non d ame     -14.387  14.485  70.331  0.00  0.00     0.212 HD
ENDBRANCH  83  88
ENDBRANCH  72  75
ENDBRANCH  47  72
ENDBRANCH  45  47
ENDBRANCH   1  43
BRANCH   1  90
ATOM     90  C16 non d ame     -10.694  10.302  66.057  0.00  0.00    -0.035 C 
ATOM     91  H21 non d ame     -10.515   9.230  65.977  0.00  0.00     0.037 H 
ATOM     92  H22 non d ame     -11.643  10.722  65.728  0.00  0.00     0.037 H 
BRANCH  90  93
ATOM     93  C17 non d ame      -9.584  10.998  65.206  0.00  0.00    -0.059 C 
ATOM     94  H23 non d ame      -8.972  11.592  65.884  0.00  0.00     0.038 H 
BRANCH  93  95
ATOM     95  C18 non d ame      -8.649   9.967  64.499  0.00  0.00    -0.073 C 
ATOM     96  H24 non d ame      -7.634  10.073  64.883  0.00  0.00     0.028 H 
ATOM     97  H25 non d ame      -9.007   8.956  64.696  0.00  0.00     0.028 H 
ATOM     98  H26 non d ame      -8.652  10.150  63.424  0.00  0.00     0.028 H 
ENDBRANCH  93  95
BRANCH  93  99
ATOM     99  C19 non d ame     -10.200  11.962  64.189  0.00  0.00    -0.073 C 
ATOM    100  H27 non d ame      -9.795  11.753  63.199  0.00  0.00     0.028 H 
ATOM    101  H28 non d ame     -11.282  11.832  64.174  0.00  0.00     0.028 H 
ATOM    102  H29 non d ame      -9.962  12.988  64.470  0.00  0.00     0.028 H 
ENDBRANCH  93  99
ENDBRANCH  90  93
ENDBRANCH   1  90
TORSDOF 26
ENDMDL
MODEL 10
REMARK VINA RESULT:      -7.2      3.547      8.427
REMARK  26 active torsions:
REMARK  status: ('A' for Active; 'I' for Inactive)
REMARK    1  A    between atoms: C2_2  and  C3_3 
REMARK    2  A    between atoms: C4_6  and  C5_7 
REMARK       I    between atoms: C5_7  and  N2_9 
REMARK    3  A    between atoms: N2_9  and  C6_10 
REMARK    4  A    between atoms: C6_10  and  C7_11 
REMARK    5  A    between atoms: C6_10  and  C8_13 
REMARK       I    between atoms: C7_11  and  N3_14 
REMARK    6  A    between atoms: N3_14  and  C9_15 
REMARK    7  A    between atoms: C9_15  and  C10_16 
REMARK    8  A    between atoms: C9_15  and  C11_18 
REMARK       I    between atoms: C10_16  and  N4_21 
REMARK    9  A    between atoms: C11_18  and  C12_19 
REMARK   10  A    between atoms: C11_18  and  C13_20 
REMARK   11  A    between atoms: N4_21  and  C14_22 
REMARK   12  A    between atoms: C14_22  and  C15_23 
REMARK   13  A    between atoms: C14_22  and  C16_25 
REMARK       I    between atoms: C15_23  and  N6_40 
REMARK   14  A    between atoms: C16_25  and  C17_26 
REMARK   15  A    between atoms: C17_26  and  C18_27 
REMARK   16  A    between atoms: C17_26  and  C19_28 
REMARK   17  A    between atoms: C20_29  and  C21_30 
REMARK   18  A    between atoms: C20_29  and  C24_33 
REMARK   19  A    between atoms: C20_29  and  N6_40 
REMARK   20  A    between atoms: C21_30  and  C22_31 
REMARK   21  A    between atoms: C22_31  and  C23_32 
REMARK   22  A    between atoms: C23_32  and  O8_43 
REMARK   23  A    between atoms: C24_33  and  C25_34 
REMARK   24  A    between atoms: C28_38  and  O6_39 
REMARK   25  A    between atoms: C29_42  and  O8_43 
REMARK   26  A    between atoms: C29_42  and  C35_49 
ROOT
ATOM      1  C14 non d ame     -10.861  14.710  67.071  0.00  0.00     0.089 C 
ATOM      2  H20 non d ame     -11.842  15.157  66.912  0.00  0.00     0.087 H 
ENDROOT
BRANCH   1   3
ATOM      3  N4  non d ame      -9.901  15.795  67.201  0.00  0.00    -0.346 N 
ATOM      4  C10 non d ame     -10.221  16.998  68.052  0.00  0.00     0.241 C 
ATOM      5  O4  non d ame     -11.260  17.071  68.622  0.00  0.00    -0.271 OA
ATOM      6  H19 non d ame      -9.023  15.714  66.706  0.00  0.00     0.163 HD
BRANCH   4   7
ATOM      7  C9  non d ame      -9.213  18.109  68.180  0.00  0.00     0.092 C 
ATOM      8  H11 non d ame      -9.438  18.698  69.070  0.00  0.00     0.088 H 
BRANCH   7   9
ATOM      9  N3  non d ame      -7.876  17.538  68.367  0.00  0.00    -0.346 N 
ATOM     10  C7  non d ame      -6.876  18.269  69.106  0.00  0.00     0.240 C 
ATOM     11  O3  non d ame      -7.129  19.320  69.555  0.00  0.00    -0.271 OA
ATOM     12  H10 non d ame      -7.642  16.633  67.984  0.00  0.00     0.163 HD
BRANCH  10  13
ATOM     13  C6  non d ame      -5.454  17.657  69.298  0.00  0.00     0.086 C 
ATOM     14  H6  non d ame      -4.954  18.023  70.195  0.00  0.00     0.086 H 
BRANCH  13  15
ATOM     15  N2  non d ame      -5.578  16.216  69.450  0.00  0.00    -0.343 N 
ATOM     16  C5  non d ame      -5.246  15.596  70.735  0.00  0.00     0.273 C 
ATOM     17  O2  non d ame      -4.878  16.264  71.638  0.00  0.00    -0.266 OA
ATOM     18  H5  non d ame      -5.891  15.653  68.673  0.00  0.00     0.163 HD
BRANCH  16  19
ATOM     19  C4  non d ame      -5.375  14.075  70.911  0.00  0.00     0.154 A 
ATOM     20  C1  non d ame      -5.384  13.083  69.880  0.00  0.00    -0.017 A 
ATOM     21  C2  non d ame      -5.523  11.852  70.559  0.00  0.00     0.077 A 
ATOM     22  H1  non d ame      -5.303  13.233  68.803  0.00  0.00     0.091 H 
ATOM     23  O1  non d ame      -5.583  12.117  71.832  0.00  0.00    -0.218 OA
ATOM     24  N1  non d ame      -5.500  13.408  72.062  0.00  0.00    -0.123 NA
BRANCH  21  25
ATOM     25  C3  non d ame      -5.587  10.472  69.921  0.00  0.00    -0.029 C 
ATOM     26  H2  non d ame      -4.803  10.382  69.168  0.00  0.00     0.036 H 
ATOM     27  H3  non d ame      -5.444   9.710  70.687  0.00  0.00     0.036 H 
ATOM     28  H4  non d ame      -6.561  10.333  69.449  0.00  0.00     0.036 H 
ENDBRANCH  21  25
ENDBRANCH  16  19
ENDBRANCH  13  15
BRANCH  13  29
ATOM     29  C8  non d ame      -4.598  17.976  68.099  0.00  0.00    -0.049 C 
ATOM     30  H7  non d ame      -4.152  17.059  67.716  0.00  0.00     0.030 H 
ATOM     31  H8  non d ame      -5.216  18.432  67.324  0.00  0.00     0.030 H 
ATOM     32  H9  non d ame      -3.810  18.670  68.389  0.00  0.00     0.030 H 
ENDBRANCH  13  29
ENDBRANCH  10  13
ENDBRANCH   7   9
BRANCH   7  33
ATOM     33  C11 non d ame      -9.228  18.975  66.886  0.00  0.00    -0.033 C 
ATOM     34  H12 non d ame      -9.966  18.543  66.210  0.00  0.00     0.042 H 
BRANCH  33  35
ATOM     35  C12 non d ame      -9.670  20.441  67.188  0.00  0.00    -0.071 C 
ATOM     36  H13 non d ame      -8.911  20.931  67.797  0.00  0.00     0.028 H 
ATOM     37  H14 non d ame      -9.791  20.984  66.251  0.00  0.00     0.028 H 
ATOM     38  H15 non d ame     -10.618  20.430  67.726  0.00  0.00     0.028 H 
ENDBRANCH  33  35
BRANCH  33  39
ATOM     39  C13 non d ame      -7.838  18.938  66.173  0.00  0.00    -0.071 C 
ATOM     40  H16 non d ame      -7.288  18.054  66.494  0.00  0.00     0.028 H 
ATOM     41  H17 non d ame      -7.985  18.904  65.093  0.00  0.00     0.028 H 
ATOM     42  H18 non d ame      -7.273  19.833  66.434  0.00  0.00     0.028 H 
ENDBRANCH  33  39
ENDBRANCH   7  33
ENDBRANCH   4   7
ENDBRANCH   1   3
BRANCH   1  43
ATOM     43  C15 non d ame     -10.812  13.847  68.365  0.00  0.00     0.240 C 
ATOM     44  O5  non d ame      -9.773  13.408  68.743  0.00  0.00    -0.271 OA
ATOM     45  N6  non d ame     -12.057  13.576  69.138  0.00  0.00    -0.355 N 
ATOM     46  H46 non d ame     -12.944  13.947  68.829  0.00  0.00     0.162 HD
BRANCH  45  47
ATOM     47  C20 non d ame     -11.993  12.755  70.367  0.00  0.00     0.013 C 
ATOM     48  H30 non d ame     -10.973  12.802  70.748  0.00  0.00     0.072 H 
BRANCH  47  49
ATOM     49  C21 non d ame     -12.353  11.325  70.033  0.00  0.00    -0.038 C 
ATOM     50  H31 non d ame     -13.195  11.075  70.678  0.00  0.00     0.036 H 
ATOM     51  H32 non d ame     -12.469  11.297  68.948  0.00  0.00     0.036 H 
BRANCH  49  52
ATOM     52  C22 non d ame     -11.227  10.327  70.376  0.00  0.00     0.018 C 
ATOM     53  H33 non d ame     -10.608  10.825  71.123  0.00  0.00     0.048 H 
ATOM     54  H34 non d ame     -11.727   9.389  70.621  0.00  0.00     0.048 H 
BRANCH  52  55
ATOM     55  C23 non d ame     -10.284  10.011  69.182  0.00  0.00     0.259 C 
ATOM     56  O7  non d ame      -9.105  10.047  69.320  0.00  0.00    -0.265 OA
BRANCH  55  57
ATOM     57  O8  non d ame     -10.846   9.693  67.915  0.00  0.00    -0.317 OA
BRANCH  57  58
ATOM     58  C29 non d ame     -10.458   8.413  67.409  0.00  0.00     0.052 C 
ATOM     59  H47 non d ame      -9.773   7.998  68.149  0.00  0.00     0.082 H 
ATOM     60  H48 non d ame     -11.387   7.894  67.176  0.00  0.00     0.082 H 
BRANCH  58  61
ATOM     61  C35 non d ame      -9.676   8.637  66.088  0.00  0.00    -0.034 A 
ATOM     62  C30 non d ame      -9.874   9.799  65.350  0.00  0.00    -0.075 A 
ATOM     63  C31 non d ame      -9.172  10.001  64.163  0.00  0.00    -0.082 A 
ATOM     64  H49 non d ame     -10.579  10.552  65.702  0.00  0.00     0.084 H 
ATOM     65  C32 non d ame      -8.270   9.033  63.712  0.00  0.00    -0.083 A 
ATOM     66  H50 non d ame      -9.329  10.914  63.588  0.00  0.00     0.083 H 
ATOM     67  C33 non d ame      -8.078   7.873  64.450  0.00  0.00    -0.082 A 
ATOM     68  H51 non d ame      -7.717   9.183  62.785  0.00  0.00     0.083 H 
ATOM     69  C34 non d ame      -8.776   7.669  65.639  0.00  0.00    -0.075 A 
ATOM     70  H52 non d ame      -7.375   7.119  64.095  0.00  0.00     0.083 H 
ATOM     71  H53 non d ame      -8.618   6.755  66.213  0.00  0.00     0.084 H 
ENDBRANCH  58  61
ENDBRANCH  57  58
ENDBRANCH  55  57
ENDBRANCH  52  55
ENDBRANCH  49  52
ENDBRANCH  47  49
BRANCH  47  72
ATOM     72  C24 non d ame     -12.973  13.299  71.403  0.00  0.00    -0.039 C 
ATOM     73  H35 non d ame     -13.955  13.236  70.935  0.00  0.00     0.036 H 
ATOM     74  H36 non d ame     -12.768  12.743  72.318  0.00  0.00     0.036 H 
BRANCH  72  75
ATOM     75  C25 non d ame     -12.701  14.846  71.721  0.00  0.00    -0.001 C 
ATOM     76  C26 non d ame     -11.993  14.999  73.197  0.00  0.00    -0.035 C 
ATOM     77  C27 non d ame     -12.689  15.906  73.923  0.00  0.00     0.085 C 
ATOM     78  H38 non d ame     -12.110  14.076  73.764  0.00  0.00     0.036 H 
ATOM     79  H39 non d ame     -11.008  15.455  73.095  0.00  0.00     0.036 H 
ATOM     80  N5  non d ame     -13.992  16.145  73.200  0.00  0.00    -0.049 N 
ATOM     81  H40 non d ame     -12.895  15.421  74.877  0.00  0.00     0.075 H 
ATOM     82  H41 non d ame     -12.095  16.820  73.893  0.00  0.00     0.075 H 
ATOM     83  C28 non d ame     -13.800  15.523  71.722  0.00  0.00     0.193 C 
ATOM     84  H42 non d ame     -14.693  15.604  73.687  0.00  0.00     0.280 HD
ATOM     85  H43 non d ame     -14.096  17.145  73.117  0.00  0.00     0.280 HD
ATOM     86  H44 non d ame     -13.633  16.176  70.865  0.00  0.00     0.129 H 
ATOM     87  H37 non d ame     -12.224  15.361  70.887  0.00  0.00     0.046 H 
BRANCH  83  88
ATOM     88  O6  non d ame     -14.929  14.720  71.375  0.00  0.00    -0.369 OA
ATOM     89  H45 non d ame     -15.561  14.728  72.097  0.00  0.00     0.212 HD
ENDBRANCH  83  88
ENDBRANCH  72  75
ENDBRANCH  47  72
ENDBRANCH  45  47
ENDBRANCH   1  43
BRANCH   1  90
ATOM     90  C16 non d ame     -10.485  13.854  65.872  0.00  0.00    -0.035 C 
ATOM     91  H21 non d ame     -10.138  14.556  65.114  0.00  0.00     0.037 H 
ATOM     92  H22 non d ame      -9.807  13.094  66.261  0.00  0.00     0.037 H 
BRANCH  90  93
ATOM     93  C17 non d ame     -11.693  13.089  65.244  0.00  0.00    -0.059 C 
ATOM     94  H23 non d ame     -11.760  12.118  65.734  0.00  0.00     0.038 H 
BRANCH  93  95
ATOM     95  C18 non d ame     -13.046  13.833  65.475  0.00  0.00    -0.073 C 
ATOM     96  H24 non d ame     -12.987  14.420  66.392  0.00  0.00     0.028 H 
ATOM     97  H25 non d ame     -13.245  14.496  64.633  0.00  0.00     0.028 H 
ATOM     98  H26 non d ame     -13.852  13.104  65.560  0.00  0.00     0.028 H 
ENDBRANCH  93  95
BRANCH  93  99
ATOM     99  C19 non d ame     -11.460  12.830  63.753  0.00  0.00    -0.073 C 
ATOM    100  H27 non d ame     -10.607  13.416  63.412  0.00  0.00     0.028 H 
ATOM    101  H28 non d ame     -11.261  11.770  63.595  0.00  0.00     0.028 H 
ATOM    102  H29 non d ame     -12.347  13.121  63.191  0.00  0.00     0.028 H 
ENDBRANCH  93  99
ENDBRANCH  90  93
ENDBRANCH   1  90
TORSDOF 26
ENDMDL
MODEL 11
REMARK VINA RESULT:      -7.2      1.811      2.514
REMARK  26 active torsions:
REMARK  status: ('A' for Active; 'I' for Inactive)
REMARK    1  A    between atoms: C2_2  and  C3_3 
REMARK    2  A    between atoms: C4_6  and  C5_7 
REMARK       I    between atoms: C5_7  and  N2_9 
REMARK    3  A    between atoms: N2_9  and  C6_10 
REMARK    4  A    between atoms: C6_10  and  C7_11 
REMARK    5  A    between atoms: C6_10  and  C8_13 
REMARK       I    between atoms: C7_11  and  N3_14 
REMARK    6  A    between atoms: N3_14  and  C9_15 
REMARK    7  A    between atoms: C9_15  and  C10_16 
REMARK    8  A    between atoms: C9_15  and  C11_18 
REMARK       I    between atoms: C10_16  and  N4_21 
REMARK    9  A    between atoms: C11_18  and  C12_19 
REMARK   10  A    between atoms: C11_18  and  C13_20 
REMARK   11  A    between atoms: N4_21  and  C14_22 
REMARK   12  A    between atoms: C14_22  and  C15_23 
REMARK   13  A    between atoms: C14_22  and  C16_25 
REMARK       I    between atoms: C15_23  and  N6_40 
REMARK   14  A    between atoms: C16_25  and  C17_26 
REMARK   15  A    between atoms: C17_26  and  C18_27 
REMARK   16  A    between atoms: C17_26  and  C19_28 
REMARK   17  A    between atoms: C20_29  and  C21_30 
REMARK   18  A    between atoms: C20_29  and  C24_33 
REMARK   19  A    between atoms: C20_29  and  N6_40 
REMARK   20  A    between atoms: C21_30  and  C22_31 
REMARK   21  A    between atoms: C22_31  and  C23_32 
REMARK   22  A    between atoms: C23_32  and  O8_43 
REMARK   23  A    between atoms: C24_33  and  C25_34 
REMARK   24  A    between atoms: C28_38  and  O6_39 
REMARK   25  A    between atoms: C29_42  and  O8_43 
REMARK   26  A    between atoms: C29_42  and  C35_49 
ROOT
ATOM      1  C14 non d ame      -7.598   6.758  66.260  0.00  0.00     0.089 C 
ATOM      2  H20 non d ame      -7.711   6.024  65.462  0.00  0.00     0.087 H 
ENDROOT
BRANCH   1   3
ATOM      3  N4  non d ame      -7.847   8.072  65.686  0.00  0.00    -0.346 N 
ATOM      4  C10 non d ame      -8.157   8.215  64.217  0.00  0.00     0.241 C 
ATOM      5  O4  non d ame      -8.198   7.257  63.516  0.00  0.00    -0.271 OA
ATOM      6  H19 non d ame      -7.805   8.874  66.299  0.00  0.00     0.163 HD
BRANCH   4   7
ATOM      7  C9  non d ame      -8.418   9.581  63.640  0.00  0.00     0.092 C 
ATOM      8  H11 non d ame      -9.435   9.618  63.249  0.00  0.00     0.088 H 
BRANCH   7   9
ATOM      9  N3  non d ame      -8.327  10.586  64.703  0.00  0.00    -0.346 N 
ATOM     10  C7  non d ame      -9.528  11.143  65.274  0.00  0.00     0.240 C 
ATOM     11  O3  non d ame     -10.577  10.795  64.889  0.00  0.00    -0.271 OA
ATOM     12  H10 non d ame      -7.429  10.898  65.044  0.00  0.00     0.163 HD
BRANCH  10  13
ATOM     13  C6  non d ame      -9.424  12.215  66.403  0.00  0.00     0.086 C 
ATOM     14  H6  non d ame      -8.406  12.343  66.772  0.00  0.00     0.086 H 
BRANCH  13  15
ATOM     15  N2  non d ame      -9.837  13.502  65.870  0.00  0.00    -0.343 N 
ATOM     16  C5  non d ame      -9.665  14.708  66.683  0.00  0.00     0.273 C 
ATOM     17  O2  non d ame      -9.195  14.632  67.765  0.00  0.00    -0.266 OA
ATOM     18  H5  non d ame     -10.240  13.559  64.946  0.00  0.00     0.163 HD
BRANCH  16  19
ATOM     19  C4  non d ame     -10.095  16.077  66.131  0.00  0.00     0.154 A 
ATOM     20  C1  non d ame      -9.906  17.355  66.746  0.00  0.00    -0.017 A 
ATOM     21  C2  non d ame     -10.475  18.281  65.843  0.00  0.00     0.077 A 
ATOM     22  H1  non d ame      -9.429  17.577  67.701  0.00  0.00     0.091 H 
ATOM     23  O1  non d ame     -10.932  17.603  64.830  0.00  0.00    -0.218 OA
ATOM     24  N1  non d ame     -10.723  16.315  64.976  0.00  0.00    -0.123 NA
BRANCH  21  25
ATOM     25  C3  non d ame     -10.537  19.791  66.021  0.00  0.00    -0.029 C 
ATOM     26  H2  non d ame      -9.526  20.201  66.016  0.00  0.00     0.036 H 
ATOM     27  H3  non d ame     -11.110  20.230  65.203  0.00  0.00     0.036 H 
ATOM     28  H4  non d ame     -11.021  20.027  66.969  0.00  0.00     0.036 H 
ENDBRANCH  21  25
ENDBRANCH  16  19
ENDBRANCH  13  15
BRANCH  13  29
ATOM     29  C8  non d ame     -10.314  11.824  67.555  0.00  0.00    -0.049 C 
ATOM     30  H7  non d ame     -10.402  10.738  67.596  0.00  0.00     0.030 H 
ATOM     31  H8  non d ame      -9.881  12.188  68.488  0.00  0.00     0.030 H 
ATOM     32  H9  non d ame     -11.301  12.263  67.417  0.00  0.00     0.030 H 
ENDBRANCH  13  29
ENDBRANCH  10  13
ENDBRANCH   7   9
BRANCH   7  33
ATOM     33  C11 non d ame      -7.358   9.892  62.543  0.00  0.00    -0.033 C 
ATOM     34  H12 non d ame      -7.233   8.991  61.942  0.00  0.00     0.042 H 
BRANCH  33  35
ATOM     35  C12 non d ame      -7.844  11.028  61.590  0.00  0.00    -0.071 C 
ATOM     36  H13 non d ame      -8.555  11.665  62.116  0.00  0.00     0.028 H 
ATOM     37  H14 non d ame      -6.989  11.625  61.271  0.00  0.00     0.028 H 
ATOM     38  H15 non d ame      -8.325  10.589  60.717  0.00  0.00     0.028 H 
ENDBRANCH  33  35
BRANCH  33  39
ATOM     39  C13 non d ame      -5.977  10.242  63.183  0.00  0.00    -0.071 C 
ATOM     40  H16 non d ame      -5.638   9.406  63.794  0.00  0.00     0.028 H 
ATOM     41  H17 non d ame      -5.249  10.435  62.395  0.00  0.00     0.028 H 
ATOM     42  H18 non d ame      -6.081  11.129  63.808  0.00  0.00     0.028 H 
ENDBRANCH  33  39
ENDBRANCH   7  33
ENDBRANCH   4   7
ENDBRANCH   1   3
BRANCH   1  43
ATOM     43  C15 non d ame      -8.608   6.525  67.420  0.00  0.00     0.240 C 
ATOM     44  O5  non d ame      -9.382   5.624  67.359  0.00  0.00    -0.271 OA
ATOM     45  N6  non d ame      -8.605   7.420  68.612  0.00  0.00    -0.355 N 
ATOM     46  H46 non d ame      -7.950   8.186  68.678  0.00  0.00     0.162 HD
BRANCH  45  47
ATOM     47  C20 non d ame      -9.570   7.185  69.708  0.00  0.00     0.013 C 
ATOM     48  H30 non d ame      -9.914   6.153  69.636  0.00  0.00     0.072 H 
BRANCH  47  49
ATOM     49  C21 non d ame     -10.741   8.130  69.555  0.00  0.00    -0.038 C 
ATOM     50  H31 non d ame     -10.671   8.524  68.541  0.00  0.00     0.036 H 
ATOM     51  H32 non d ame     -11.620   7.561  69.860  0.00  0.00     0.036 H 
BRANCH  49  52
ATOM     52  C22 non d ame     -10.658   9.345  70.504  0.00  0.00     0.018 C 
ATOM     53  H33 non d ame      -9.754   9.197  71.096  0.00  0.00     0.048 H 
ATOM     54  H34 non d ame     -10.754  10.224  69.866  0.00  0.00     0.048 H 
BRANCH  52  55
ATOM     55  C23 non d ame     -11.828   9.423  71.523  0.00  0.00     0.259 C 
ATOM     56  O7  non d ame     -12.081   8.497  72.222  0.00  0.00    -0.265 OA
BRANCH  55  57
ATOM     57  O8  non d ame     -12.605  10.612  71.603  0.00  0.00    -0.317 OA
BRANCH  57  58
ATOM     58  C29 non d ame     -12.421  11.504  70.501  0.00  0.00     0.052 C 
ATOM     59  H47 non d ame     -11.367  11.430  70.233  0.00  0.00     0.082 H 
ATOM     60  H48 non d ame     -13.188  11.237  69.774  0.00  0.00     0.082 H 
BRANCH  58  61
ATOM     61  C35 non d ame     -12.700  12.947  71.000  0.00  0.00    -0.034 A 
ATOM     62  C30 non d ame     -12.168  14.036  70.318  0.00  0.00    -0.075 A 
ATOM     63  C31 non d ame     -12.419  15.331  70.766  0.00  0.00    -0.082 A 
ATOM     64  H49 non d ame     -11.555  13.874  69.432  0.00  0.00     0.084 H 
ATOM     65  C32 non d ame     -13.204  15.536  71.904  0.00  0.00    -0.083 A 
ATOM     66  H50 non d ame     -12.002  16.182  70.228  0.00  0.00     0.083 H 
ATOM     67  C33 non d ame     -13.730  14.446  72.585  0.00  0.00    -0.082 A 
ATOM     68  H51 non d ame     -13.405  16.546  72.262  0.00  0.00     0.083 H 
ATOM     69  C34 non d ame     -13.483  13.149  72.138  0.00  0.00    -0.075 A 
ATOM     70  H52 non d ame     -14.340  14.609  73.474  0.00  0.00     0.083 H 
ATOM     71  H53 non d ame     -13.902  12.298  72.678  0.00  0.00     0.084 H 
ENDBRANCH  58  61
ENDBRANCH  57  58
ENDBRANCH  55  57
ENDBRANCH  52  55
ENDBRANCH  49  52
ENDBRANCH  47  49
BRANCH  47  72
ATOM     72  C24 non d ame      -8.892   7.426  71.054  0.00  0.00    -0.039 C 
ATOM     73  H35 non d ame      -7.825   7.476  70.837  0.00  0.00     0.036 H 
ATOM     74  H36 non d ame      -9.401   8.288  71.486  0.00  0.00     0.036 H 
BRANCH  72  75
ATOM     75  C25 non d ame      -9.112   6.196  72.057  0.00  0.00    -0.001 C 
ATOM     76  C26 non d ame     -10.388   5.286  71.558  0.00  0.00    -0.035 C 
ATOM     77  C27 non d ame     -11.236   5.114  72.600  0.00  0.00     0.085 C 
ATOM     78  H38 non d ame     -10.983   5.844  70.835  0.00  0.00     0.036 H 
ATOM     79  H39 non d ame     -10.057   4.274  71.327  0.00  0.00     0.036 H 
ATOM     80  N5  non d ame     -10.822   6.091  73.673  0.00  0.00    -0.049 N 
ATOM     81  H40 non d ame     -12.220   5.394  72.224  0.00  0.00     0.075 H 
ATOM     82  H41 non d ame     -11.056   4.100  72.956  0.00  0.00     0.075 H 
ATOM     83  C28 non d ame      -9.350   6.610  73.258  0.00  0.00     0.193 C 
ATOM     84  H42 non d ame     -11.464   6.869  73.615  0.00  0.00     0.280 HD
ATOM     85  H43 non d ame     -10.746   5.562  74.529  0.00  0.00     0.280 HD
ATOM     86  H44 non d ame      -8.466   6.237  73.775  0.00  0.00     0.129 H 
ATOM     87  H37 non d ame      -8.183   5.670  72.276  0.00  0.00     0.046 H 
BRANCH  83  88
ATOM     88  O6  non d ame      -9.282   8.033  73.362  0.00  0.00    -0.369 OA
ATOM     89  H45 non d ame      -9.947   8.340  73.981  0.00  0.00     0.212 HD
ENDBRANCH  83  88
ENDBRANCH  72  75
ENDBRANCH  47  72
ENDBRANCH  45  47
ENDBRANCH   1  43
BRANCH   1  90
ATOM     90  C16 non d ame      -6.178   6.714  66.802  0.00  0.00    -0.035 C 
ATOM     91  H21 non d ame      -5.937   7.744  67.064  0.00  0.00     0.037 H 
ATOM     92  H22 non d ame      -6.187   5.944  67.572  0.00  0.00     0.037 H 
BRANCH  90  93
ATOM     93  C17 non d ame      -5.118   6.270  65.745  0.00  0.00    -0.059 C 
ATOM     94  H23 non d ame      -4.303   5.780  66.279  0.00  0.00     0.038 H 
BRANCH  93  95
ATOM     95  C18 non d ame      -5.699   5.245  64.720  0.00  0.00    -0.073 C 
ATOM     96  H24 non d ame      -6.774   5.403  64.618  0.00  0.00     0.028 H 
ATOM     97  H25 non d ame      -5.219   5.387  63.752  0.00  0.00     0.028 H 
ATOM     98  H26 non d ame      -5.512   4.231  65.073  0.00  0.00     0.028 H 
ENDBRANCH  93  95
BRANCH  93  99
ATOM     99  C19 non d ame      -4.522   7.483  65.025  0.00  0.00    -0.073 C 
ATOM    100  H27 non d ame      -5.282   7.934  64.386  0.00  0.00     0.028 H 
ATOM    101  H28 non d ame      -4.186   8.213  65.761  0.00  0.00     0.028 H 
ATOM    102  H29 non d ame      -3.677   7.165  64.415  0.00  0.00     0.028 H 
ENDBRANCH  93  99
ENDBRANCH  90  93
ENDBRANCH   1  90
TORSDOF 26
ENDMDL
MODEL 12
REMARK VINA RESULT:      -7.2      2.924      8.437
REMARK  26 active torsions:
REMARK  status: ('A' for Active; 'I' for Inactive)
REMARK    1  A    between atoms: C2_2  and  C3_3 
REMARK    2  A    between atoms: C4_6  and  C5_7 
REMARK       I    between atoms: C5_7  and  N2_9 
REMARK    3  A    between atoms: N2_9  and  C6_10 
REMARK    4  A    between atoms: C6_10  and  C7_11 
REMARK    5  A    between atoms: C6_10  and  C8_13 
REMARK       I    between atoms: C7_11  and  N3_14 
REMARK    6  A    between atoms: N3_14  and  C9_15 
REMARK    7  A    between atoms: C9_15  and  C10_16 
REMARK    8  A    between atoms: C9_15  and  C11_18 
REMARK       I    between atoms: C10_16  and  N4_21 
REMARK    9  A    between atoms: C11_18  and  C12_19 
REMARK   10  A    between atoms: C11_18  and  C13_20 
REMARK   11  A    between atoms: N4_21  and  C14_22 
REMARK   12  A    between atoms: C14_22  and  C15_23 
REMARK   13  A    between atoms: C14_22  and  C16_25 
REMARK       I    between atoms: C15_23  and  N6_40 
REMARK   14  A    between atoms: C16_25  and  C17_26 
REMARK   15  A    between atoms: C17_26  and  C18_27 
REMARK   16  A    between atoms: C17_26  and  C19_28 
REMARK   17  A    between atoms: C20_29  and  C21_30 
REMARK   18  A    between atoms: C20_29  and  C24_33 
REMARK   19  A    between atoms: C20_29  and  N6_40 
REMARK   20  A    between atoms: C21_30  and  C22_31 
REMARK   21  A    between atoms: C22_31  and  C23_32 
REMARK   22  A    between atoms: C23_32  and  O8_43 
REMARK   23  A    between atoms: C24_33  and  C25_34 
REMARK   24  A    between atoms: C28_38  and  O6_39 
REMARK   25  A    between atoms: C29_42  and  O8_43 
REMARK   26  A    between atoms: C29_42  and  C35_49 
ROOT
ATOM      1  C14 non d ame     -10.201  10.951  64.054  0.00  0.00     0.089 C 
ATOM      2  H20 non d ame     -11.186  10.503  64.184  0.00  0.00     0.087 H 
ENDROOT
BRANCH   1   3
ATOM      3  N4  non d ame      -9.595  11.071  65.371  0.00  0.00    -0.346 N 
ATOM      4  C10 non d ame     -10.455  11.042  66.610  0.00  0.00     0.241 C 
ATOM      5  O4  non d ame     -11.633  10.923  66.521  0.00  0.00    -0.271 OA
ATOM      6  H19 non d ame      -8.591  11.175  65.425  0.00  0.00     0.163 HD
BRANCH   4   7
ATOM      7  C9  non d ame      -9.811  11.163  67.966  0.00  0.00     0.092 C 
ATOM      8  H11 non d ame      -8.729  11.088  67.858  0.00  0.00     0.088 H 
BRANCH   7   9
ATOM      9  N3  non d ame     -10.098  12.486  68.528  0.00  0.00    -0.346 N 
ATOM     10  C7  non d ame      -9.379  13.643  68.054  0.00  0.00     0.240 C 
ATOM     11  O3  non d ame      -8.565  13.526  67.221  0.00  0.00    -0.271 OA
ATOM     12  H10 non d ame     -10.797  12.601  69.248  0.00  0.00     0.163 HD
BRANCH  10  13
ATOM     13  C6  non d ame      -9.687  15.047  68.659  0.00  0.00     0.086 C 
ATOM     14  H6  non d ame     -10.447  15.591  68.097  0.00  0.00     0.086 H 
BRANCH  13  15
ATOM     15  N2  non d ame     -10.208  14.877  70.005  0.00  0.00    -0.343 N 
ATOM     16  C5  non d ame     -11.440  15.567  70.394  0.00  0.00     0.273 C 
ATOM     17  O2  non d ame     -12.003  16.258  69.618  0.00  0.00    -0.266 OA
ATOM     18  H5  non d ame      -9.720  14.286  70.663  0.00  0.00     0.163 HD
BRANCH  16  19
ATOM     19  C4  non d ame     -12.003  15.394  71.814  0.00  0.00     0.154 A 
ATOM     20  C1  non d ame     -11.877  16.305  72.910  0.00  0.00    -0.017 A 
ATOM     21  C2  non d ame     -12.564  15.685  73.978  0.00  0.00     0.077 A 
ATOM     22  H1  non d ame     -11.366  17.268  72.929  0.00  0.00     0.091 H 
ATOM     23  O1  non d ame     -13.028  14.553  73.536  0.00  0.00    -0.218 OA
ATOM     24  N1  non d ame     -12.712  14.360  72.275  0.00  0.00    -0.123 NA
BRANCH  21  25
ATOM     25  C3  non d ame     -12.732  16.242  75.385  0.00  0.00    -0.029 C 
ATOM     26  H2  non d ame     -13.236  15.504  76.011  0.00  0.00     0.036 H 
ATOM     27  H3  non d ame     -11.752  16.466  75.807  0.00  0.00     0.036 H 
ATOM     28  H4  non d ame     -13.328  17.154  75.348  0.00  0.00     0.036 H 
ENDBRANCH  21  25
ENDBRANCH  16  19
ENDBRANCH  13  15
BRANCH  13  29
ATOM     29  C8  non d ame      -8.425  15.871  68.694  0.00  0.00    -0.049 C 
ATOM     30  H7  non d ame      -8.566  16.725  69.357  0.00  0.00     0.030 H 
ATOM     31  H8  non d ame      -7.602  15.257  69.063  0.00  0.00     0.030 H 
ATOM     32  H9  non d ame      -8.194  16.224  67.691  0.00  0.00     0.030 H 
ENDBRANCH  13  29
ENDBRANCH  10  13
ENDBRANCH   7   9
BRANCH   7  33
ATOM     33  C11 non d ame     -10.382  10.065  68.911  0.00  0.00    -0.033 C 
ATOM     34  H12 non d ame     -10.805   9.280  68.285  0.00  0.00     0.042 H 
BRANCH  33  35
ATOM     35  C12 non d ame      -9.256   9.419  69.777  0.00  0.00    -0.071 C 
ATOM     36  H13 non d ame      -9.424   8.344  69.847  0.00  0.00     0.028 H 
ATOM     37  H14 non d ame      -8.288   9.606  69.313  0.00  0.00     0.028 H 
ATOM     38  H15 non d ame      -9.271   9.856  70.776  0.00  0.00     0.028 H 
ENDBRANCH  33  35
BRANCH  33  39
ATOM     39  C13 non d ame     -11.527  10.639  69.807  0.00  0.00    -0.071 C 
ATOM     40  H16 non d ame     -11.564  10.088  70.746  0.00  0.00     0.028 H 
ATOM     41  H17 non d ame     -11.336  11.693  70.010  0.00  0.00     0.028 H 
ATOM     42  H18 non d ame     -12.479  10.536  69.287  0.00  0.00     0.028 H 
ENDBRANCH  33  39
ENDBRANCH   7  33
ENDBRANCH   4   7
ENDBRANCH   1   3
BRANCH   1  43
ATOM     43  C15 non d ame      -9.273  10.079  63.160  0.00  0.00     0.240 C 
ATOM     44  O5  non d ame      -8.940  10.475  62.089  0.00  0.00    -0.271 OA
ATOM     45  N6  non d ame      -8.790   8.754  63.642  0.00  0.00    -0.355 N 
ATOM     46  H46 non d ame      -9.062   8.408  64.551  0.00  0.00     0.162 HD
BRANCH  45  47
ATOM     47  C20 non d ame      -7.908   7.937  62.781  0.00  0.00     0.013 C 
ATOM     48  H30 non d ame      -8.384   7.844  61.805  0.00  0.00     0.072 H 
BRANCH  47  49
ATOM     49  C21 non d ame      -7.729   6.570  63.401  0.00  0.00    -0.038 C 
ATOM     50  H31 non d ame      -6.654   6.449  63.544  0.00  0.00     0.036 H 
ATOM     51  H32 non d ame      -8.400   6.547  64.261  0.00  0.00     0.036 H 
BRANCH  49  52
ATOM     52  C22 non d ame      -8.177   5.425  62.468  0.00  0.00     0.018 C 
ATOM     53  H33 non d ame      -8.480   5.904  61.536  0.00  0.00     0.048 H 
ATOM     54  H34 non d ame      -7.359   4.704  62.470  0.00  0.00     0.048 H 
BRANCH  52  55
ATOM     55  C23 non d ame      -9.428   4.656  62.978  0.00  0.00     0.259 C 
ATOM     56  O7  non d ame      -9.909   3.788  62.325  0.00  0.00    -0.265 OA
BRANCH  55  57
ATOM     57  O8  non d ame     -10.001   5.010  64.231  0.00  0.00    -0.317 OA
BRANCH  57  58
ATOM     58  C29 non d ame      -9.915   3.983  65.223  0.00  0.00     0.052 C 
ATOM     59  H47 non d ame     -10.767   3.329  65.046  0.00  0.00     0.082 H 
ATOM     60  H48 non d ame      -8.901   3.589  65.151  0.00  0.00     0.082 H 
BRANCH  58  61
ATOM     61  C35 non d ame     -10.086   4.647  66.615  0.00  0.00    -0.034 A 
ATOM     62  C30 non d ame      -9.555   4.038  67.747  0.00  0.00    -0.075 A 
ATOM     63  C31 non d ame      -9.708   4.635  68.998  0.00  0.00    -0.082 A 
ATOM     64  H49 non d ame      -9.018   3.095  67.655  0.00  0.00     0.084 H 
ATOM     65  C32 non d ame     -10.398   5.844  69.114  0.00  0.00    -0.083 A 
ATOM     66  H50 non d ame      -9.289   4.156  69.882  0.00  0.00     0.083 H 
ATOM     67  C33 non d ame     -10.930   6.447  67.982  0.00  0.00    -0.082 A 
ATOM     68  H51 non d ame     -10.523   6.318  70.088  0.00  0.00     0.083 H 
ATOM     69  C34 non d ame     -10.776   5.855  66.730  0.00  0.00    -0.075 A 
ATOM     70  H52 non d ame     -11.469   7.390  68.076  0.00  0.00     0.083 H 
ATOM     71  H53 non d ame     -11.196   6.336  65.844  0.00  0.00     0.084 H 
ENDBRANCH  58  61
ENDBRANCH  57  58
ENDBRANCH  55  57
ENDBRANCH  52  55
ENDBRANCH  49  52
ENDBRANCH  47  49
BRANCH  47  72
ATOM     72  C24 non d ame      -6.548   8.617  62.644  0.00  0.00    -0.039 C 
ATOM     73  H35 non d ame      -5.940   7.936  62.049  0.00  0.00     0.036 H 
ATOM     74  H36 non d ame      -6.760   9.621  62.275  0.00  0.00     0.036 H 
BRANCH  72  75
ATOM     75  C25 non d ame      -5.821   8.780  64.063  0.00  0.00    -0.001 C 
ATOM     76  C26 non d ame      -5.702  10.373  64.453  0.00  0.00    -0.035 C 
ATOM     77  C27 non d ame      -4.417  10.648  64.781  0.00  0.00     0.085 C 
ATOM     78  H38 non d ame      -5.875  10.988  63.569  0.00  0.00     0.036 H 
ATOM     79  H39 non d ame      -6.250  10.576  65.373  0.00  0.00     0.036 H 
ATOM     80  N5  non d ame      -3.586   9.467  64.339  0.00  0.00    -0.049 N 
ATOM     81  H40 non d ame      -4.142  11.518  64.186  0.00  0.00     0.075 H 
ATOM     82  H41 non d ame      -4.401  10.704  65.870  0.00  0.00     0.075 H 
ATOM     83  C28 non d ame      -4.633   8.274  64.041  0.00  0.00     0.193 C 
ATOM     84  H42 non d ame      -3.148   9.735  63.469  0.00  0.00     0.280 HD
ATOM     85  H43 non d ame      -3.017   9.204  65.131  0.00  0.00     0.280 HD
ATOM     86  H44 non d ame      -4.753   7.453  64.748  0.00  0.00     0.129 H 
ATOM     87  H37 non d ame      -6.238   8.115  64.819  0.00  0.00     0.046 H 
BRANCH  83  88
ATOM     88  O6  non d ame      -4.333   7.658  62.788  0.00  0.00    -0.369 OA
ATOM     89  H45 non d ame      -3.790   8.250  62.262  0.00  0.00     0.212 HD
ENDBRANCH  83  88
ENDBRANCH  72  75
ENDBRANCH  47  72
ENDBRANCH  45  47
ENDBRANCH   1  43
BRANCH   1  90
ATOM     90  C16 non d ame     -10.343  12.337  63.443  0.00  0.00    -0.035 C 
ATOM     91  H21 non d ame      -9.730  12.990  64.066  0.00  0.00     0.037 H 
ATOM     92  H22 non d ame     -10.106  12.213  62.388  0.00  0.00     0.037 H 
BRANCH  90  93
ATOM     93  C17 non d ame     -11.796  12.903  63.507  0.00  0.00    -0.059 C 
ATOM     94  H23 non d ame     -11.984  13.437  62.576  0.00  0.00     0.038 H 
BRANCH  93  95
ATOM     95  C18 non d ame     -12.866  11.772  63.634  0.00  0.00    -0.073 C 
ATOM     96  H24 non d ame     -12.534  10.895  63.078  0.00  0.00     0.028 H 
ATOM     97  H25 non d ame     -12.994  11.509  64.684  0.00  0.00     0.028 H 
ATOM     98  H26 non d ame     -13.815  12.122  63.229  0.00  0.00     0.028 H 
ENDBRANCH  93  95
BRANCH  93  99
ATOM     99  C19 non d ame     -11.938  13.917  64.646  0.00  0.00    -0.073 C 
ATOM    100  H27 non d ame     -12.877  14.459  64.534  0.00  0.00     0.028 H 
ATOM    101  H28 non d ame     -11.932  13.393  65.602  0.00  0.00     0.028 H 
ATOM    102  H29 non d ame     -11.106  14.620  64.612  0.00  0.00     0.028 H 
ENDBRANCH  93  99
ENDBRANCH  90  93
ENDBRANCH   1  90
TORSDOF 26
ENDMDL
MODEL 13
REMARK VINA RESULT:      -7.1      3.150      8.605
REMARK  26 active torsions:
REMARK  status: ('A' for Active; 'I' for Inactive)
REMARK    1  A    between atoms: C2_2  and  C3_3 
REMARK    2  A    between atoms: C4_6  and  C5_7 
REMARK       I    between atoms: C5_7  and  N2_9 
REMARK    3  A    between atoms: N2_9  and  C6_10 
REMARK    4  A    between atoms: C6_10  and  C7_11 
REMARK    5  A    between atoms: C6_10  and  C8_13 
REMARK       I    between atoms: C7_11  and  N3_14 
REMARK    6  A    between atoms: N3_14  and  C9_15 
REMARK    7  A    between atoms: C9_15  and  C10_16 
REMARK    8  A    between atoms: C9_15  and  C11_18 
REMARK       I    between atoms: C10_16  and  N4_21 
REMARK    9  A    between atoms: C11_18  and  C12_19 
REMARK   10  A    between atoms: C11_18  and  C13_20 
REMARK   11  A    between atoms: N4_21  and  C14_22 
REMARK   12  A    between atoms: C14_22  and  C15_23 
REMARK   13  A    between atoms: C14_22  and  C16_25 
REMARK       I    between atoms: C15_23  and  N6_40 
REMARK   14  A    between atoms: C16_25  and  C17_26 
REMARK   15  A    between atoms: C17_26  and  C18_27 
REMARK   16  A    between atoms: C17_26  and  C19_28 
REMARK   17  A    between atoms: C20_29  and  C21_30 
REMARK   18  A    between atoms: C20_29  and  C24_33 
REMARK   19  A    between atoms: C20_29  and  N6_40 
REMARK   20  A    between atoms: C21_30  and  C22_31 
REMARK   21  A    between atoms: C22_31  and  C23_32 
REMARK   22  A    between atoms: C23_32  and  O8_43 
REMARK   23  A    between atoms: C24_33  and  C25_34 
REMARK   24  A    between atoms: C28_38  and  O6_39 
REMARK   25  A    between atoms: C29_42  and  O8_43 
REMARK   26  A    between atoms: C29_42  and  C35_49 
ROOT
ATOM      1  C14 non d ame      -6.870  12.899  68.176  0.00  0.00     0.089 C 
ATOM      2  H20 non d ame      -6.036  12.726  67.495  0.00  0.00     0.087 H 
ENDROOT
BRANCH   1   3
ATOM      3  N4  non d ame      -7.148  14.328  68.174  0.00  0.00    -0.346 N 
ATOM      4  C10 non d ame      -6.085  15.310  67.751  0.00  0.00     0.241 C 
ATOM      5  O4  non d ame      -5.011  14.927  67.420  0.00  0.00    -0.271 OA
ATOM      6  H19 non d ame      -8.067  14.633  68.463  0.00  0.00     0.163 HD
BRANCH   4   7
ATOM      7  C9  non d ame      -6.392  16.785  67.750  0.00  0.00     0.092 C 
ATOM      8  H11 non d ame      -6.140  17.202  66.775  0.00  0.00     0.088 H 
BRANCH   7   9
ATOM      9  N3  non d ame      -7.831  16.985  67.947  0.00  0.00    -0.346 N 
ATOM     10  C7  non d ame      -8.644  17.484  66.866  0.00  0.00     0.240 C 
ATOM     11  O3  non d ame      -8.157  17.732  65.831  0.00  0.00    -0.271 OA
ATOM     12  H10 non d ame      -8.265  16.777  68.835  0.00  0.00     0.163 HD
BRANCH  10  13
ATOM     13  C6  non d ame     -10.174  17.698  67.083  0.00  0.00     0.086 C 
ATOM     14  H6  non d ame     -10.781  17.213  66.319  0.00  0.00     0.086 H 
BRANCH  13  15
ATOM     15  N2  non d ame     -10.557  17.107  68.355  0.00  0.00    -0.343 N 
ATOM     16  C5  non d ame     -11.322  15.858  68.369  0.00  0.00     0.273 C 
ATOM     17  O2  non d ame     -11.627  15.339  67.352  0.00  0.00    -0.266 OA
ATOM     18  H5  non d ame     -10.294  17.559  69.219  0.00  0.00     0.163 HD
BRANCH  16  19
ATOM     19  C4  non d ame     -11.731  15.221  69.706  0.00  0.00     0.154 A 
ATOM     20  C1  non d ame     -11.957  15.892  70.950  0.00  0.00    -0.017 A 
ATOM     21  C2  non d ame     -12.307  14.867  71.857  0.00  0.00     0.077 A 
ATOM     22  H1  non d ame     -11.879  16.958  71.162  0.00  0.00     0.091 H 
ATOM     23  O1  non d ame     -12.284  13.743  71.201  0.00  0.00    -0.218 OA
ATOM     24  N1  non d ame     -11.949  13.925  69.944  0.00  0.00    -0.123 NA
BRANCH  21  25
ATOM     25  C3  non d ame     -12.651  15.045  73.330  0.00  0.00    -0.029 C 
ATOM     26  H2  non d ame     -11.858  15.611  73.823  0.00  0.00     0.036 H 
ATOM     27  H3  non d ame     -13.592  15.586  73.420  0.00  0.00     0.036 H 
ATOM     28  H4  non d ame     -12.747  14.068  73.802  0.00  0.00     0.036 H 
ENDBRANCH  21  25
ENDBRANCH  16  19
ENDBRANCH  13  15
BRANCH  13  29
ATOM     29  C8  non d ame     -10.483  19.173  67.086  0.00  0.00    -0.049 C 
ATOM     30  H7  non d ame     -10.123  19.619  68.014  0.00  0.00     0.030 H 
ATOM     31  H8  non d ame      -9.989  19.650  66.239  0.00  0.00     0.030 H 
ATOM     32  H9  non d ame     -11.560  19.320  67.008  0.00  0.00     0.030 H 
ENDBRANCH  13  29
ENDBRANCH  10  13
ENDBRANCH   7   9
BRANCH   7  33
ATOM     33  C11 non d ame      -5.611  17.479  68.904  0.00  0.00    -0.033 C 
ATOM     34  H12 non d ame      -4.558  17.496  68.624  0.00  0.00     0.042 H 
BRANCH  33  35
ATOM     35  C12 non d ame      -6.071  18.958  69.092  0.00  0.00    -0.071 C 
ATOM     36  H13 non d ame      -5.322  19.627  68.668  0.00  0.00     0.028 H 
ATOM     37  H14 non d ame      -7.023  19.110  68.583  0.00  0.00     0.028 H 
ATOM     38  H15 non d ame      -6.189  19.169  70.154  0.00  0.00     0.028 H 
ENDBRANCH  33  35
BRANCH  33  39
ATOM     39  C13 non d ame      -5.745  16.671  70.234  0.00  0.00    -0.071 C 
ATOM     40  H16 non d ame      -6.099  15.664  70.014  0.00  0.00     0.028 H 
ATOM     41  H17 non d ame      -4.774  16.615  70.726  0.00  0.00     0.028 H 
ATOM     42  H18 non d ame      -6.457  17.170  70.891  0.00  0.00     0.028 H 
ENDBRANCH  33  39
ENDBRANCH   7  33
ENDBRANCH   4   7
ENDBRANCH   1   3
BRANCH   1  43
ATOM     43  C15 non d ame      -8.156  12.143  67.736  0.00  0.00     0.240 C 
ATOM     44  O5  non d ame      -9.222  12.539  68.082  0.00  0.00    -0.271 OA
ATOM     45  N6  non d ame      -8.060  10.931  66.874  0.00  0.00    -0.355 N 
ATOM     46  H46 non d ame      -7.160  10.587  66.570  0.00  0.00     0.162 HD
BRANCH  45  47
ATOM     47  C20 non d ame      -9.292  10.224  66.463  0.00  0.00     0.013 C 
ATOM     48  H30 non d ame     -10.126  10.655  67.017  0.00  0.00     0.072 H 
BRANCH  47  49
ATOM     49  C21 non d ame      -9.159   8.754  66.791  0.00  0.00    -0.038 C 
ATOM     50  H31 non d ame      -8.479   8.345  66.043  0.00  0.00     0.036 H 
ATOM     51  H32 non d ame      -8.896   8.712  67.849  0.00  0.00     0.036 H 
BRANCH  49  52
ATOM     52  C22 non d ame     -10.488   7.984  66.641  0.00  0.00     0.018 C 
ATOM     53  H33 non d ame     -11.214   8.525  67.249  0.00  0.00     0.048 H 
ATOM     54  H34 non d ame     -10.648   7.877  65.568  0.00  0.00     0.048 H 
BRANCH  52  55
ATOM     55  C23 non d ame     -10.443   6.540  67.214  0.00  0.00     0.259 C 
ATOM     56  O7  non d ame     -10.206   6.355  68.363  0.00  0.00    -0.265 OA
BRANCH  55  57
ATOM     57  O8  non d ame     -10.674   5.437  66.345  0.00  0.00    -0.317 OA
BRANCH  57  58
ATOM     58  C29 non d ame      -9.578   4.521  66.262  0.00  0.00     0.052 C 
ATOM     59  H47 non d ame      -9.075   4.574  67.226  0.00  0.00     0.082 H 
ATOM     60  H48 non d ame     -10.008   3.578  65.923  0.00  0.00     0.082 H 
BRANCH  58  61
ATOM     61  C35 non d ame      -8.605   5.037  65.170  0.00  0.00    -0.034 A 
ATOM     62  C30 non d ame      -7.346   5.508  65.526  0.00  0.00    -0.075 A 
ATOM     63  C31 non d ame      -6.470   5.972  64.545  0.00  0.00    -0.082 A 
ATOM     64  H49 non d ame      -7.044   5.515  66.572  0.00  0.00     0.084 H 
ATOM     65  C32 non d ame      -6.860   5.965  63.203  0.00  0.00    -0.083 A 
ATOM     66  H50 non d ame      -5.484   6.339  64.827  0.00  0.00     0.083 H 
ATOM     67  C33 non d ame      -8.119   5.497  62.852  0.00  0.00    -0.082 A 
ATOM     68  H51 non d ame      -6.182   6.326  62.429  0.00  0.00     0.083 H 
ATOM     69  C34 non d ame      -8.996   5.030  63.829  0.00  0.00    -0.075 A 
ATOM     70  H52 non d ame      -8.421   5.495  61.804  0.00  0.00     0.083 H 
ATOM     71  H53 non d ame      -9.983   4.662  63.546  0.00  0.00     0.084 H 
ENDBRANCH  58  61
ENDBRANCH  57  58
ENDBRANCH  55  57
ENDBRANCH  52  55
ENDBRANCH  49  52
ENDBRANCH  47  49
BRANCH  47  72
ATOM     72  C24 non d ame      -9.507  10.394  64.961  0.00  0.00    -0.039 C 
ATOM     73  H35 non d ame      -8.514  10.334  64.516  0.00  0.00     0.036 H 
ATOM     74  H36 non d ame     -10.270   9.663  64.692  0.00  0.00     0.036 H 
BRANCH  72  75
ATOM     75  C25 non d ame     -10.096  11.841  64.607  0.00  0.00    -0.001 C 
ATOM     76  C26 non d ame     -11.433  12.141  65.517  0.00  0.00    -0.035 C 
ATOM     77  C27 non d ame     -12.440  12.529  64.699  0.00  0.00     0.085 C 
ATOM     78  H38 non d ame     -11.803  11.213  65.953  0.00  0.00     0.036 H 
ATOM     79  H39 non d ame     -11.268  13.013  66.150  0.00  0.00     0.036 H 
ATOM     80  N5  non d ame     -12.011  12.209  63.287  0.00  0.00    -0.049 N 
ATOM     81  H40 non d ame     -13.290  11.899  64.963  0.00  0.00     0.075 H 
ATOM     82  H41 non d ame     -12.506  13.611  64.812  0.00  0.00     0.075 H 
ATOM     83  C28 non d ame     -10.424  11.920  63.360  0.00  0.00     0.193 C 
ATOM     84  H42 non d ame     -12.482  11.352  63.032  0.00  0.00     0.280 HD
ATOM     85  H43 non d ame     -12.160  13.047  62.745  0.00  0.00     0.280 HD
ATOM     86  H44 non d ame      -9.709  12.668  63.014  0.00  0.00     0.129 H 
ATOM     87  H37 non d ame      -9.323  12.610  64.594  0.00  0.00     0.046 H 
BRANCH  83  88
ATOM     88  O6  non d ame     -10.107  10.727  62.643  0.00  0.00    -0.369 OA
ATOM     89  H45 non d ame     -10.804  10.081  62.773  0.00  0.00     0.212 HD
ENDBRANCH  83  88
ENDBRANCH  72  75
ENDBRANCH  47  72
ENDBRANCH  45  47
ENDBRANCH   1  43
BRANCH   1  90
ATOM     90  C16 non d ame      -6.482  12.471  69.583  0.00  0.00    -0.035 C 
ATOM     91  H21 non d ame      -7.051  13.120  70.249  0.00  0.00     0.037 H 
ATOM     92  H22 non d ame      -6.638  11.393  69.610  0.00  0.00     0.037 H 
BRANCH  90  93
ATOM     93  C17 non d ame      -4.975  12.709  69.917  0.00  0.00    -0.059 C 
ATOM     94  H23 non d ame      -4.613  13.502  69.263  0.00  0.00     0.038 H 
BRANCH  93  95
ATOM     95  C18 non d ame      -4.764  13.174  71.393  0.00  0.00    -0.073 C 
ATOM     96  H24 non d ame      -3.722  13.460  71.538  0.00  0.00     0.028 H 
ATOM     97  H25 non d ame      -5.407  14.029  71.600  0.00  0.00     0.028 H 
ATOM     98  H26 non d ame      -5.016  12.359  72.071  0.00  0.00     0.028 H 
ENDBRANCH  93  95
BRANCH  93  99
ATOM     99  C19 non d ame      -4.145  11.458  69.616  0.00  0.00    -0.073 C 
ATOM    100  H27 non d ame      -4.777  10.710  69.137  0.00  0.00     0.028 H 
ATOM    101  H28 non d ame      -3.322  11.720  68.950  0.00  0.00     0.028 H 
ATOM    102  H29 non d ame      -3.746  11.054  70.546  0.00  0.00     0.028 H 
ENDBRANCH  93  99
ENDBRANCH  90  93
ENDBRANCH   1  90
TORSDOF 26
ENDMDL
MODEL 14
REMARK VINA RESULT:      -7.1      2.675      6.403
REMARK  26 active torsions:
REMARK  status: ('A' for Active; 'I' for Inactive)
REMARK    1  A    between atoms: C2_2  and  C3_3 
REMARK    2  A    between atoms: C4_6  and  C5_7 
REMARK       I    between atoms: C5_7  and  N2_9 
REMARK    3  A    between atoms: N2_9  and  C6_10 
REMARK    4  A    between atoms: C6_10  and  C7_11 
REMARK    5  A    between atoms: C6_10  and  C8_13 
REMARK       I    between atoms: C7_11  and  N3_14 
REMARK    6  A    between atoms: N3_14  and  C9_15 
REMARK    7  A    between atoms: C9_15  and  C10_16 
REMARK    8  A    between atoms: C9_15  and  C11_18 
REMARK       I    between atoms: C10_16  and  N4_21 
REMARK    9  A    between atoms: C11_18  and  C12_19 
REMARK   10  A    between atoms: C11_18  and  C13_20 
REMARK   11  A    between atoms: N4_21  and  C14_22 
REMARK   12  A    between atoms: C14_22  and  C15_23 
REMARK   13  A    between atoms: C14_22  and  C16_25 
REMARK       I    between atoms: C15_23  and  N6_40 
REMARK   14  A    between atoms: C16_25  and  C17_26 
REMARK   15  A    between atoms: C17_26  and  C18_27 
REMARK   16  A    between atoms: C17_26  and  C19_28 
REMARK   17  A    between atoms: C20_29  and  C21_30 
REMARK   18  A    between atoms: C20_29  and  C24_33 
REMARK   19  A    between atoms: C20_29  and  N6_40 
REMARK   20  A    between atoms: C21_30  and  C22_31 
REMARK   21  A    between atoms: C22_31  and  C23_32 
REMARK   22  A    between atoms: C23_32  and  O8_43 
REMARK   23  A    between atoms: C24_33  and  C25_34 
REMARK   24  A    between atoms: C28_38  and  O6_39 
REMARK   25  A    between atoms: C29_42  and  O8_43 
REMARK   26  A    between atoms: C29_42  and  C35_49 
ROOT
ATOM      1  C14 non d ame      -8.668  10.368  68.833  0.00  0.00     0.089 C 
ATOM      2  H20 non d ame      -8.068  11.251  69.048  0.00  0.00     0.087 H 
ENDROOT
BRANCH   1   3
ATOM      3  N4  non d ame      -8.186   9.803  67.582  0.00  0.00    -0.346 N 
ATOM      4  C10 non d ame      -6.834  10.195  67.040  0.00  0.00     0.241 C 
ATOM      5  O4  non d ame      -6.154  10.969  67.629  0.00  0.00    -0.271 OA
ATOM      6  H19 non d ame      -8.782   9.147  67.096  0.00  0.00     0.163 HD
BRANCH   4   7
ATOM      7  C9  non d ame      -6.349   9.596  65.747  0.00  0.00     0.092 C 
ATOM      8  H11 non d ame      -6.650   8.550  65.700  0.00  0.00     0.088 H 
BRANCH   7   9
ATOM      9  N3  non d ame      -6.990  10.281  64.620  0.00  0.00    -0.346 N 
ATOM     10  C7  non d ame      -8.151   9.703  63.991  0.00  0.00     0.240 C 
ATOM     11  O3  non d ame      -8.583   8.686  64.378  0.00  0.00    -0.271 OA
ATOM     12  H10 non d ame      -6.627  11.158  64.274  0.00  0.00     0.163 HD
BRANCH  10  13
ATOM     13  C6  non d ame      -8.826  10.435  62.790  0.00  0.00     0.086 C 
ATOM     14  H6  non d ame      -9.742   9.946  62.458  0.00  0.00     0.086 H 
BRANCH  13  15
ATOM     15  N2  non d ame      -9.200  11.777  63.206  0.00  0.00    -0.343 N 
ATOM     16  C5  non d ame     -10.482  11.991  63.883  0.00  0.00     0.273 C 
ATOM     17  O2  non d ame     -11.205  11.078  64.085  0.00  0.00    -0.266 OA
ATOM     18  H5  non d ame      -8.578  12.551  63.028  0.00  0.00     0.163 HD
BRANCH  16  19
ATOM     19  C4  non d ame     -10.890  13.403  64.331  0.00  0.00     0.154 A 
ATOM     20  C1  non d ame     -10.065  14.375  64.981  0.00  0.00    -0.017 A 
ATOM     21  C2  non d ame     -10.906  15.494  65.176  0.00  0.00     0.077 A 
ATOM     22  H1  non d ame      -9.017  14.284  65.268  0.00  0.00     0.091 H 
ATOM     23  O1  non d ame     -12.074  15.190  64.689  0.00  0.00    -0.218 OA
ATOM     24  N1  non d ame     -12.089  13.974  64.191  0.00  0.00    -0.123 NA
BRANCH  21  25
ATOM     25  C3  non d ame     -10.516  16.812  65.831  0.00  0.00    -0.029 C 
ATOM     26  H2  non d ame     -11.404  17.432  65.957  0.00  0.00     0.036 H 
ATOM     27  H3  non d ame     -10.069  16.614  66.805  0.00  0.00     0.036 H 
ATOM     28  H4  non d ame      -9.795  17.333  65.200  0.00  0.00     0.036 H 
ENDBRANCH  21  25
ENDBRANCH  16  19
ENDBRANCH  13  15
BRANCH  13  29
ATOM     29  C8  non d ame      -7.863  10.504  61.633  0.00  0.00    -0.049 C 
ATOM     30  H7  non d ame      -7.027   9.828  61.815  0.00  0.00     0.030 H 
ATOM     31  H8  non d ame      -8.375  10.211  60.716  0.00  0.00     0.030 H 
ATOM     32  H9  non d ame      -7.490  11.522  61.531  0.00  0.00     0.030 H 
ENDBRANCH  13  29
ENDBRANCH  10  13
ENDBRANCH   7   9
BRANCH   7  33
ATOM     33  C11 non d ame      -4.804   9.766  65.644  0.00  0.00    -0.033 C 
ATOM     34  H12 non d ame      -4.473  10.299  66.535  0.00  0.00     0.042 H 
BRANCH  33  35
ATOM     35  C12 non d ame      -4.080   8.384  65.627  0.00  0.00    -0.071 C 
ATOM     36  H13 non d ame      -4.748   7.629  65.212  0.00  0.00     0.028 H 
ATOM     37  H14 non d ame      -3.182   8.452  65.013  0.00  0.00     0.028 H 
ATOM     38  H15 non d ame      -3.804   8.107  66.644  0.00  0.00     0.028 H 
ENDBRANCH  33  35
BRANCH  33  39
ATOM     39  C13 non d ame      -4.419  10.623  64.396  0.00  0.00    -0.071 C 
ATOM     40  H16 non d ame      -3.334  10.662  64.303  0.00  0.00     0.028 H 
ATOM     41  H17 non d ame      -4.845  10.173  63.499  0.00  0.00     0.028 H 
ATOM     42  H18 non d ame      -4.809  11.634  64.515  0.00  0.00     0.028 H 
ENDBRANCH  33  39
ENDBRANCH   7  33
ENDBRANCH   4   7
ENDBRANCH   1   3
BRANCH   1  43
ATOM     43  C15 non d ame      -8.543   9.287  69.945  0.00  0.00     0.240 C 
ATOM     44  O5  non d ame      -7.692   9.383  70.771  0.00  0.00    -0.271 OA
ATOM     45  N6  non d ame      -9.489   8.136  69.988  0.00  0.00    -0.355 N 
ATOM     46  H46 non d ame     -10.219   8.045  69.295  0.00  0.00     0.162 HD
BRANCH  45  47
ATOM     47  C20 non d ame      -9.357   7.118  71.052  0.00  0.00     0.013 C 
ATOM     48  H30 non d ame      -8.527   7.410  71.695  0.00  0.00     0.072 H 
BRANCH  47  49
ATOM     49  C21 non d ame      -9.075   5.771  70.425  0.00  0.00    -0.038 C 
ATOM     50  H31 non d ame      -8.308   5.953  69.671  0.00  0.00     0.036 H 
ATOM     51  H32 non d ame      -8.874   5.096  71.257  0.00  0.00     0.036 H 
BRANCH  49  52
ATOM     52  C22 non d ame     -10.294   5.191  69.677  0.00  0.00     0.018 C 
ATOM     53  H33 non d ame     -10.219   4.108  69.783  0.00  0.00     0.048 H 
ATOM     54  H34 non d ame     -11.162   5.718  70.073  0.00  0.00     0.048 H 
BRANCH  52  55
ATOM     55  C23 non d ame     -10.283   5.471  68.148  0.00  0.00     0.259 C 
ATOM     56  O7  non d ame     -10.849   6.417  67.705  0.00  0.00    -0.265 OA
BRANCH  55  57
ATOM     57  O8  non d ame      -9.598   4.577  67.280  0.00  0.00    -0.317 OA
BRANCH  57  58
ATOM     58  C29 non d ame     -10.051   4.619  65.924  0.00  0.00     0.052 C 
ATOM     59  H47 non d ame     -10.329   3.596  65.673  0.00  0.00     0.082 H 
ATOM     60  H48 non d ame     -10.799   5.411  65.888  0.00  0.00     0.082 H 
BRANCH  58  61
ATOM     61  C35 non d ame      -8.852   5.036  65.031  0.00  0.00    -0.034 A 
ATOM     62  C30 non d ame      -7.649   5.418  65.616  0.00  0.00    -0.075 A 
ATOM     63  C31 non d ame      -6.572   5.793  64.814  0.00  0.00    -0.082 A 
ATOM     64  H49 non d ame      -7.550   5.425  66.700  0.00  0.00     0.084 H 
ATOM     65  C32 non d ame      -6.701   5.786  63.423  0.00  0.00    -0.083 A 
ATOM     66  H50 non d ame      -5.630   6.090  65.275  0.00  0.00     0.083 H 
ATOM     67  C33 non d ame      -7.905   5.406  62.844  0.00  0.00    -0.082 A 
ATOM     68  H51 non d ame      -5.864   6.077  62.789  0.00  0.00     0.083 H 
ATOM     69  C34 non d ame      -8.983   5.029  63.642  0.00  0.00    -0.075 A 
ATOM     70  H52 non d ame      -8.004   5.404  61.758  0.00  0.00     0.083 H 
ATOM     71  H53 non d ame      -9.926   4.731  63.179  0.00  0.00     0.084 H 
ENDBRANCH  58  61
ENDBRANCH  57  58
ENDBRANCH  55  57
ENDBRANCH  52  55
ENDBRANCH  49  52
ENDBRANCH  47  49
BRANCH  47  72
ATOM     72  C24 non d ame     -10.652   7.043  71.858  0.00  0.00    -0.039 C 
ATOM     73  H35 non d ame     -10.932   5.990  71.862  0.00  0.00     0.036 H 
ATOM     74  H36 non d ame     -10.439   7.554  72.798  0.00  0.00     0.036 H 
BRANCH  72  75
ATOM     75  C25 non d ame     -11.841   7.845  71.144  0.00  0.00    -0.001 C 
ATOM     76  C26 non d ame     -11.856   9.405  71.662  0.00  0.00    -0.035 C 
ATOM     77  C27 non d ame     -13.107   9.717  72.074  0.00  0.00     0.085 C 
ATOM     78  H38 non d ame     -11.258   9.504  72.567  0.00  0.00     0.036 H 
ATOM     79  H39 non d ame     -11.688  10.080  70.822  0.00  0.00     0.036 H 
ATOM     80  N5  non d ame     -13.870   8.420  72.191  0.00  0.00    -0.049 N 
ATOM     81  H40 non d ame     -12.988  10.151  73.068  0.00  0.00     0.075 H 
ATOM     82  H41 non d ame     -13.540  10.311  71.269  0.00  0.00     0.075 H 
ATOM     83  C28 non d ame     -12.988   7.314  71.412  0.00  0.00     0.193 C 
ATOM     84  H42 non d ame     -13.885   8.184  73.173  0.00  0.00     0.280 HD
ATOM     85  H43 non d ame     -14.737   8.551  71.691  0.00  0.00     0.280 HD
ATOM     86  H44 non d ame     -13.284   6.970  70.420  0.00  0.00     0.129 H 
ATOM     87  H37 non d ame     -11.863   7.679  70.067  0.00  0.00     0.046 H 
BRANCH  83  88
ATOM     88  O6  non d ame     -12.865   6.134  72.206  0.00  0.00    -0.369 OA
ATOM     89  H45 non d ame     -12.288   5.509  71.762  0.00  0.00     0.212 HD
ENDBRANCH  83  88
ENDBRANCH  72  75
ENDBRANCH  47  72
ENDBRANCH  45  47
ENDBRANCH   1  43
BRANCH   1  90
ATOM     90  C16 non d ame     -10.127  10.765  68.670  0.00  0.00    -0.035 C 
ATOM     91  H21 non d ame     -10.597   9.930  68.150  0.00  0.00     0.037 H 
ATOM     92  H22 non d ame     -10.464  11.045  69.667  0.00  0.00     0.037 H 
BRANCH  90  93
ATOM     93  C17 non d ame     -10.336  12.020  67.764  0.00  0.00    -0.059 C 
ATOM     94  H23 non d ame     -10.098  11.732  66.740  0.00  0.00     0.038 H 
BRANCH  93  95
ATOM     95  C18 non d ame     -11.814  12.524  67.786  0.00  0.00    -0.073 C 
ATOM     96  H24 non d ame     -11.831  13.593  68.003  0.00  0.00     0.028 H 
ATOM     97  H25 non d ame     -12.274  12.345  66.814  0.00  0.00     0.028 H 
ATOM     98  H26 non d ame     -12.371  11.988  68.554  0.00  0.00     0.028 H 
ENDBRANCH  93  95
BRANCH  93  99
ATOM     99  C19 non d ame      -9.372  13.143  68.156  0.00  0.00    -0.073 C 
ATOM    100  H27 non d ame      -8.961  12.940  69.145  0.00  0.00     0.028 H 
ATOM    101  H28 non d ame      -8.561  13.195  67.429  0.00  0.00     0.028 H 
ATOM    102  H29 non d ame      -9.907  14.092  68.173  0.00  0.00     0.028 H 
ENDBRANCH  93  99
ENDBRANCH  90  93
ENDBRANCH   1  90
TORSDOF 26
ENDMDL
MODEL 15
REMARK VINA RESULT:      -7.1      2.650      6.394
REMARK  26 active torsions:
REMARK  status: ('A' for Active; 'I' for Inactive)
REMARK    1  A    between atoms: C2_2  and  C3_3 
REMARK    2  A    between atoms: C4_6  and  C5_7 
REMARK       I    between atoms: C5_7  and  N2_9 
REMARK    3  A    between atoms: N2_9  and  C6_10 
REMARK    4  A    between atoms: C6_10  and  C7_11 
REMARK    5  A    between atoms: C6_10  and  C8_13 
REMARK       I    between atoms: C7_11  and  N3_14 
REMARK    6  A    between atoms: N3_14  and  C9_15 
REMARK    7  A    between atoms: C9_15  and  C10_16 
REMARK    8  A    between atoms: C9_15  and  C11_18 
REMARK       I    between atoms: C10_16  and  N4_21 
REMARK    9  A    between atoms: C11_18  and  C12_19 
REMARK   10  A    between atoms: C11_18  and  C13_20 
REMARK   11  A    between atoms: N4_21  and  C14_22 
REMARK   12  A    between atoms: C14_22  and  C15_23 
REMARK   13  A    between atoms: C14_22  and  C16_25 
REMARK       I    between atoms: C15_23  and  N6_40 
REMARK   14  A    between atoms: C16_25  and  C17_26 
REMARK   15  A    between atoms: C17_26  and  C18_27 
REMARK   16  A    between atoms: C17_26  and  C19_28 
REMARK   17  A    between atoms: C20_29  and  C21_30 
REMARK   18  A    between atoms: C20_29  and  C24_33 
REMARK   19  A    between atoms: C20_29  and  N6_40 
REMARK   20  A    between atoms: C21_30  and  C22_31 
REMARK   21  A    between atoms: C22_31  and  C23_32 
REMARK   22  A    between atoms: C23_32  and  O8_43 
REMARK   23  A    between atoms: C24_33  and  C25_34 
REMARK   24  A    between atoms: C28_38  and  O6_39 
REMARK   25  A    between atoms: C29_42  and  O8_43 
REMARK   26  A    between atoms: C29_42  and  C35_49 
ROOT
ATOM      1  C14 non d ame      -8.221   8.351  62.726  0.00  0.00     0.089 C 
ATOM      2  H20 non d ame      -8.814   8.224  61.821  0.00  0.00     0.087 H 
ENDROOT
BRANCH   1   3
ATOM      3  N4  non d ame      -9.037   9.077  63.688  0.00  0.00    -0.346 N 
ATOM      4  C10 non d ame      -9.570  10.448  63.355  0.00  0.00     0.241 C 
ATOM      5  O4  non d ame      -9.325  10.948  62.306  0.00  0.00    -0.271 OA
ATOM      6  H19 non d ame      -9.231   8.634  64.576  0.00  0.00     0.163 HD
BRANCH   4   7
ATOM      7  C9  non d ame     -10.417  11.182  64.360  0.00  0.00     0.092 C 
ATOM      8  H11 non d ame     -11.024  10.463  64.911  0.00  0.00     0.088 H 
BRANCH   7   9
ATOM      9  N3  non d ame      -9.551  11.853  65.334  0.00  0.00    -0.346 N 
ATOM     10  C7  non d ame      -9.871  11.805  66.738  0.00  0.00     0.240 C 
ATOM     11  O3  non d ame     -10.825  11.231  67.103  0.00  0.00    -0.271 OA
ATOM     12  H10 non d ame      -8.726  12.353  65.033  0.00  0.00     0.163 HD
BRANCH  10  13
ATOM     13  C6  non d ame      -8.947  12.524  67.769  0.00  0.00     0.086 C 
ATOM     14  H6  non d ame      -8.394  13.356  67.332  0.00  0.00     0.086 H 
BRANCH  13  15
ATOM     15  N2  non d ame      -9.769  13.082  68.830  0.00  0.00    -0.343 N 
ATOM     16  C5  non d ame     -10.477  14.344  68.604  0.00  0.00     0.273 C 
ATOM     17  O2  non d ame     -10.377  14.903  67.568  0.00  0.00    -0.266 OA
ATOM     18  H5  non d ame      -9.847  12.600  69.713  0.00  0.00     0.163 HD
BRANCH  16  19
ATOM     19  C4  non d ame     -11.351  14.946  69.716  0.00  0.00     0.154 A 
ATOM     20  C1  non d ame     -12.499  14.351  70.330  0.00  0.00    -0.017 A 
ATOM     21  C2  non d ame     -12.936  15.300  71.281  0.00  0.00     0.077 A 
ATOM     22  H1  non d ame     -12.947  13.379  70.117  0.00  0.00     0.091 H 
ATOM     23  O1  non d ame     -12.126  16.316  71.214  0.00  0.00    -0.218 OA
ATOM     24  N1  non d ame     -11.193  16.133  70.307  0.00  0.00    -0.123 NA
BRANCH  21  25
ATOM     25  C3  non d ame     -14.131  15.157  72.212  0.00  0.00    -0.029 C 
ATOM     26  H2  non d ame     -13.954  15.732  73.123  0.00  0.00     0.036 H 
ATOM     27  H3  non d ame     -15.026  15.532  71.715  0.00  0.00     0.036 H 
ATOM     28  H4  non d ame     -14.272  14.107  72.467  0.00  0.00     0.036 H 
ENDBRANCH  21  25
ENDBRANCH  16  19
ENDBRANCH  13  15
BRANCH  13  29
ATOM     29  C8  non d ame      -7.965  11.535  68.344  0.00  0.00    -0.049 C 
ATOM     30  H7  non d ame      -7.065  12.060  68.665  0.00  0.00     0.030 H 
ATOM     31  H8  non d ame      -8.416  11.031  69.200  0.00  0.00     0.030 H 
ATOM     32  H9  non d ame      -7.704  10.799  67.585  0.00  0.00     0.030 H 
ENDBRANCH  13  29
ENDBRANCH  10  13
ENDBRANCH   7   9
BRANCH   7  33
ATOM     33  C11 non d ame     -11.289  12.243  63.627  0.00  0.00    -0.033 C 
ATOM     34  H12 non d ame     -10.898  12.348  62.615  0.00  0.00     0.042 H 
BRANCH  33  35
ATOM     35  C12 non d ame     -12.774  11.777  63.510  0.00  0.00    -0.071 C 
ATOM     36  H13 non d ame     -13.151  12.013  62.515  0.00  0.00     0.028 H 
ATOM     37  H14 non d ame     -12.830  10.700  63.672  0.00  0.00     0.028 H 
ATOM     38  H15 non d ame     -13.375  12.289  64.260  0.00  0.00     0.028 H 
ENDBRANCH  33  35
BRANCH  33  39
ATOM     39  C13 non d ame     -11.187  13.634  64.331  0.00  0.00    -0.071 C 
ATOM     40  H16 non d ame     -10.664  14.333  63.680  0.00  0.00     0.028 H 
ATOM     41  H17 non d ame     -12.188  14.011  64.541  0.00  0.00     0.028 H 
ATOM     42  H18 non d ame     -10.636  13.527  65.266  0.00  0.00     0.028 H 
ENDBRANCH  33  39
ENDBRANCH   7  33
ENDBRANCH   4   7
ENDBRANCH   1   3
BRANCH   1  43
ATOM     43  C15 non d ame      -7.808   6.989  63.355  0.00  0.00     0.240 C 
ATOM     44  O5  non d ame      -7.468   6.092  62.651  0.00  0.00    -0.271 OA
ATOM     45  N6  non d ame      -7.828   6.804  64.833  0.00  0.00    -0.355 N 
ATOM     46  H46 non d ame      -8.111   7.560  65.441  0.00  0.00     0.162 HD
BRANCH  45  47
ATOM     47  C20 non d ame      -7.432   5.504  65.415  0.00  0.00     0.013 C 
ATOM     48  H30 non d ame      -7.420   4.767  64.612  0.00  0.00     0.072 H 
BRANCH  47  49
ATOM     49  C21 non d ame      -8.437   5.100  66.470  0.00  0.00    -0.038 C 
ATOM     50  H31 non d ame      -8.624   4.039  66.309  0.00  0.00     0.036 H 
ATOM     51  H32 non d ame      -8.020   5.443  67.419  0.00  0.00     0.036 H 
BRANCH  49  52
ATOM     52  C22 non d ame      -9.796   5.815  66.308  0.00  0.00     0.018 C 
ATOM     53  H33 non d ame      -9.875   6.063  65.249  0.00  0.00     0.048 H 
ATOM     54  H34 non d ame     -10.532   5.157  66.770  0.00  0.00     0.048 H 
BRANCH  52  55
ATOM     55  C23 non d ame      -9.888   7.165  67.071  0.00  0.00     0.259 C 
ATOM     56  O7  non d ame     -10.035   8.184  66.478  0.00  0.00    -0.265 OA
BRANCH  55  57
ATOM     57  O8  non d ame      -9.779   7.174  68.489  0.00  0.00    -0.317 OA
BRANCH  57  58
ATOM     58  C29 non d ame      -9.755   8.484  69.065  0.00  0.00     0.052 C 
ATOM     59  H47 non d ame      -8.810   8.553  69.602  0.00  0.00     0.082 H 
ATOM     60  H48 non d ame      -9.968   9.170  68.244  0.00  0.00     0.082 H 
BRANCH  58  61
ATOM     61  C35 non d ame     -10.913   8.576  70.094  0.00  0.00    -0.034 A 
ATOM     62  C30 non d ame     -11.517   7.416  70.569  0.00  0.00    -0.075 A 
ATOM     63  C31 non d ame     -12.557   7.498  71.493  0.00  0.00    -0.082 A 
ATOM     64  H49 non d ame     -11.175   6.443  70.217  0.00  0.00     0.084 H 
ATOM     65  C32 non d ame     -12.995   8.748  71.941  0.00  0.00    -0.083 A 
ATOM     66  H50 non d ame     -13.026   6.588  71.865  0.00  0.00     0.083 H 
ATOM     67  C33 non d ame     -12.392   9.903  71.462  0.00  0.00    -0.082 A 
ATOM     68  H51 non d ame     -13.808   8.821  72.663  0.00  0.00     0.083 H 
ATOM     69  C34 non d ame     -11.350   9.824  70.539  0.00  0.00    -0.075 A 
ATOM     70  H52 non d ame     -12.738  10.876  71.811  0.00  0.00     0.083 H 
ATOM     71  H53 non d ame     -10.881  10.737  70.168  0.00  0.00     0.084 H 
ENDBRANCH  58  61
ENDBRANCH  57  58
ENDBRANCH  55  57
ENDBRANCH  52  55
ENDBRANCH  49  52
ENDBRANCH  47  49
BRANCH  47  72
ATOM     72  C24 non d ame      -6.047   5.622  66.047  0.00  0.00    -0.039 C 
ATOM     73  H35 non d ame      -5.743   6.656  65.890  0.00  0.00     0.036 H 
ATOM     74  H36 non d ame      -6.157   5.235  67.061  0.00  0.00     0.036 H 
BRANCH  72  75
ATOM     75  C25 non d ame      -4.974   4.694  65.302  0.00  0.00    -0.001 C 
ATOM     76  C26 non d ame      -4.696   3.336  66.186  0.00  0.00    -0.035 C 
ATOM     77  C27 non d ame      -3.360   3.190  66.353  0.00  0.00     0.085 C 
ATOM     78  H38 non d ame      -5.066   3.470  67.202  0.00  0.00     0.036 H 
ATOM     79  H39 non d ame      -4.980   2.453  65.614  0.00  0.00     0.036 H 
ATOM     80  N5  non d ame      -2.718   4.494  65.945  0.00  0.00    -0.049 N 
ATOM     81  H40 non d ame      -3.214   3.042  67.423  0.00  0.00     0.075 H 
ATOM     82  H41 non d ame      -3.062   2.413  65.649  0.00  0.00     0.075 H 
ATOM     83  C28 non d ame      -3.853   5.315  65.140  0.00  0.00     0.193 C 
ATOM     84  H42 non d ame      -2.509   4.990  66.799  0.00  0.00     0.280 HD
ATOM     85  H43 non d ame      -1.975   4.260  65.302  0.00  0.00     0.280 HD
ATOM     86  H44 non d ame      -3.819   5.384  64.053  0.00  0.00     0.129 H 
ATOM     87  H37 non d ame      -5.208   4.559  64.246  0.00  0.00     0.046 H 
BRANCH  83  88
ATOM     88  O6  non d ame      -3.910   6.663  65.608  0.00  0.00    -0.369 OA
ATOM     89  H45 non d ame      -4.814   6.982  65.557  0.00  0.00     0.212 HD
ENDBRANCH  83  88
ENDBRANCH  72  75
ENDBRANCH  47  72
ENDBRANCH  45  47
ENDBRANCH   1  43
BRANCH   1  90
ATOM     90  C16 non d ame      -6.976   9.168  62.415  0.00  0.00    -0.035 C 
ATOM     91  H21 non d ame      -6.579   8.747  61.491  0.00  0.00     0.037 H 
ATOM     92  H22 non d ame      -7.299  10.208  62.445  0.00  0.00     0.037 H 
BRANCH  90  93
ATOM     93  C17 non d ame      -5.849   9.024  63.485  0.00  0.00    -0.059 C 
ATOM     94  H23 non d ame      -6.089   8.160  64.104  0.00  0.00     0.038 H 
BRANCH  93  95
ATOM     95  C18 non d ame      -4.449   8.774  62.839  0.00  0.00    -0.073 C 
ATOM     96  H24 non d ame      -3.865   9.694  62.868  0.00  0.00     0.028 H 
ATOM     97  H25 non d ame      -3.927   7.995  63.394  0.00  0.00     0.028 H 
ATOM     98  H26 non d ame      -4.578   8.457  61.804  0.00  0.00     0.028 H 
ENDBRANCH  93  95
BRANCH  93  99
ATOM     99  C19 non d ame      -5.812  10.246  64.408  0.00  0.00    -0.073 C 
ATOM    100  H27 non d ame      -5.709   9.917  65.442  0.00  0.00     0.028 H 
ATOM    101  H28 non d ame      -4.964  10.877  64.141  0.00  0.00     0.028 H 
ATOM    102  H29 non d ame      -6.736  10.812  64.297  0.00  0.00     0.028 H 
ENDBRANCH  93  99
ENDBRANCH  90  93
ENDBRANCH   1  90
TORSDOF 26
ENDMDL
MODEL 16
REMARK VINA RESULT:      -7.0      2.563      8.001
REMARK  26 active torsions:
REMARK  status: ('A' for Active; 'I' for Inactive)
REMARK    1  A    between atoms: C2_2  and  C3_3 
REMARK    2  A    between atoms: C4_6  and  C5_7 
REMARK       I    between atoms: C5_7  and  N2_9 
REMARK    3  A    between atoms: N2_9  and  C6_10 
REMARK    4  A    between atoms: C6_10  and  C7_11 
REMARK    5  A    between atoms: C6_10  and  C8_13 
REMARK       I    between atoms: C7_11  and  N3_14 
REMARK    6  A    between atoms: N3_14  and  C9_15 
REMARK    7  A    between atoms: C9_15  and  C10_16 
REMARK    8  A    between atoms: C9_15  and  C11_18 
REMARK       I    between atoms: C10_16  and  N4_21 
REMARK    9  A    between atoms: C11_18  and  C12_19 
REMARK   10  A    between atoms: C11_18  and  C13_20 
REMARK   11  A    between atoms: N4_21  and  C14_22 
REMARK   12  A    between atoms: C14_22  and  C15_23 
REMARK   13  A    between atoms: C14_22  and  C16_25 
REMARK       I    between atoms: C15_23  and  N6_40 
REMARK   14  A    between atoms: C16_25  and  C17_26 
REMARK   15  A    between atoms: C17_26  and  C18_27 
REMARK   16  A    between atoms: C17_26  and  C19_28 
REMARK   17  A    between atoms: C20_29  and  C21_30 
REMARK   18  A    between atoms: C20_29  and  C24_33 
REMARK   19  A    between atoms: C20_29  and  N6_40 
REMARK   20  A    between atoms: C21_30  and  C22_31 
REMARK   21  A    between atoms: C22_31  and  C23_32 
REMARK   22  A    between atoms: C23_32  and  O8_43 
REMARK   23  A    between atoms: C24_33  and  C25_34 
REMARK   24  A    between atoms: C28_38  and  O6_39 
REMARK   25  A    between atoms: C29_42  and  O8_43 
REMARK   26  A    between atoms: C29_42  and  C35_49 
ROOT
ATOM      1  C14 non d ame     -10.362  11.033  67.904  0.00  0.00     0.089 C 
ATOM      2  H20 non d ame      -9.340  11.072  68.281  0.00  0.00     0.087 H 
ENDROOT
BRANCH   1   3
ATOM      3  N4  non d ame     -10.891   9.711  68.206  0.00  0.00    -0.346 N 
ATOM      4  C10 non d ame     -10.098   8.750  69.056  0.00  0.00     0.241 C 
ATOM      5  O4  non d ame      -9.036   9.062  69.484  0.00  0.00    -0.271 OA
ATOM      6  H19 non d ame     -11.795   9.464  67.830  0.00  0.00     0.163 HD
BRANCH   4   7
ATOM      7  C9  non d ame     -10.663   7.388  69.363  0.00  0.00     0.092 C 
ATOM      8  H11 non d ame     -11.721   7.371  69.104  0.00  0.00     0.088 H 
BRANCH   7   9
ATOM      9  N3  non d ame      -9.998   6.383  68.528  0.00  0.00    -0.346 N 
ATOM     10  C7  non d ame     -10.386   6.220  67.149  0.00  0.00     0.240 C 
ATOM     11  O3  non d ame     -11.233   6.888  66.695  0.00  0.00    -0.271 OA
ATOM     12  H10 non d ame      -9.267   5.798  68.907  0.00  0.00     0.163 HD
BRANCH  10  13
ATOM     13  C6  non d ame      -9.677   5.146  66.267  0.00  0.00     0.086 C 
ATOM     14  H6  non d ame     -10.271   4.850  65.403  0.00  0.00     0.086 H 
BRANCH  13  15
ATOM     15  N2  non d ame      -8.439   5.705  65.750  0.00  0.00    -0.343 N 
ATOM     16  C5  non d ame      -8.131   5.577  64.323  0.00  0.00     0.273 C 
ATOM     17  O2  non d ame      -8.885   5.022  63.602  0.00  0.00    -0.266 OA
ATOM     18  H5  non d ame      -7.799   6.176  66.373  0.00  0.00     0.163 HD
BRANCH  16  19
ATOM     19  C4  non d ame      -6.827   6.165  63.761  0.00  0.00     0.154 A 
ATOM     20  C1  non d ame      -6.448   7.545  63.720  0.00  0.00    -0.017 A 
ATOM     21  C2  non d ame      -5.173   7.553  63.113  0.00  0.00     0.077 A 
ATOM     22  H1  non d ame      -7.012   8.407  64.076  0.00  0.00     0.091 H 
ATOM     23  O1  non d ame      -4.863   6.318  62.843  0.00  0.00    -0.218 OA
ATOM     24  N1  non d ame      -5.814   5.490  63.211  0.00  0.00    -0.123 NA
BRANCH  21  25
ATOM     25  C3  non d ame      -4.317   8.781  62.830  0.00  0.00    -0.029 C 
ATOM     26  H2  non d ame      -4.556   9.565  63.550  0.00  0.00     0.036 H 
ATOM     27  H3  non d ame      -3.263   8.516  62.917  0.00  0.00     0.036 H 
ATOM     28  H4  non d ame      -4.519   9.141  61.821  0.00  0.00     0.036 H 
ENDBRANCH  21  25
ENDBRANCH  16  19
ENDBRANCH  13  15
BRANCH  13  29
ATOM     29  C8  non d ame      -9.383   3.923  67.098  0.00  0.00    -0.049 C 
ATOM     30  H7  non d ame      -9.798   4.053  68.097  0.00  0.00     0.030 H 
ATOM     31  H8  non d ame      -9.834   3.048  66.628  0.00  0.00     0.030 H 
ATOM     32  H9  non d ame      -8.305   3.782  67.168  0.00  0.00     0.030 H 
ENDBRANCH  13  29
ENDBRANCH  10  13
ENDBRANCH   7   9
BRANCH   7  33
ATOM     33  C11 non d ame     -10.422   7.053  70.865  0.00  0.00    -0.033 C 
ATOM     34  H12 non d ame      -9.436   7.433  71.132  0.00  0.00     0.042 H 
BRANCH  33  35
ATOM     35  C12 non d ame     -11.464   7.768  71.780  0.00  0.00    -0.071 C 
ATOM     36  H13 non d ame     -12.459   7.670  71.344  0.00  0.00     0.028 H 
ATOM     37  H14 non d ame     -11.455   7.309  72.769  0.00  0.00     0.028 H 
ATOM     38  H15 non d ame     -11.207   8.823  71.868  0.00  0.00     0.028 H 
ENDBRANCH  33  35
BRANCH  33  39
ATOM     39  C13 non d ame     -10.426   5.509  71.100  0.00  0.00    -0.071 C 
ATOM     40  H16 non d ame      -9.400   5.147  71.154  0.00  0.00     0.028 H 
ATOM     41  H17 non d ame     -10.941   5.284  72.035  0.00  0.00     0.028 H 
ATOM     42  H18 non d ame     -10.942   5.018  70.275  0.00  0.00     0.028 H 
ENDBRANCH  33  39
ENDBRANCH   7  33
ENDBRANCH   4   7
ENDBRANCH   1   3
BRANCH   1  43
ATOM     43  C15 non d ame     -11.277  12.097  68.574  0.00  0.00     0.240 C 
ATOM     44  O5  non d ame     -12.356  11.787  68.966  0.00  0.00    -0.271 OA
ATOM     45  N6  non d ame     -10.806  13.501  68.737  0.00  0.00    -0.355 N 
ATOM     46  H46 non d ame      -9.889  13.776  68.412  0.00  0.00     0.162 HD
BRANCH  45  47
ATOM     47  C20 non d ame     -11.687  14.501  69.378  0.00  0.00     0.013 C 
ATOM     48  H30 non d ame     -12.684  14.068  69.455  0.00  0.00     0.072 H 
BRANCH  47  49
ATOM     49  C21 non d ame     -11.732  15.749  68.524  0.00  0.00    -0.038 C 
ATOM     50  H31 non d ame     -12.771  15.855  68.212  0.00  0.00     0.036 H 
ATOM     51  H32 non d ame     -11.258  16.530  69.121  0.00  0.00     0.036 H 
BRANCH  49  52
ATOM     52  C22 non d ame     -10.897  15.622  67.232  0.00  0.00     0.018 C 
ATOM     53  H33 non d ame     -10.155  14.848  67.434  0.00  0.00     0.048 H 
ATOM     54  H34 non d ame     -11.618  15.487  66.426  0.00  0.00     0.048 H 
BRANCH  52  55
ATOM     55  C23 non d ame     -10.092  16.903  66.879  0.00  0.00     0.259 C 
ATOM     56  O7  non d ame     -10.321  17.502  65.879  0.00  0.00    -0.265 OA
BRANCH  55  57
ATOM     57  O8  non d ame      -9.065  17.346  67.758  0.00  0.00    -0.317 OA
BRANCH  57  58
ATOM     58  C29 non d ame      -9.310  18.630  68.340  0.00  0.00     0.052 C 
ATOM     59  H47 non d ame     -10.115  19.072  67.754  0.00  0.00     0.082 H 
ATOM     60  H48 non d ame      -9.449  18.448  69.406  0.00  0.00     0.082 H 
BRANCH  58  61
ATOM     61  C35 non d ame      -8.034  19.492  68.152  0.00  0.00    -0.034 A 
ATOM     62  C30 non d ame      -7.128  19.633  69.198  0.00  0.00    -0.075 A 
ATOM     63  C31 non d ame      -5.981  20.407  69.030  0.00  0.00    -0.082 A 
ATOM     64  H49 non d ame      -7.316  19.136  70.149  0.00  0.00     0.084 H 
ATOM     65  C32 non d ame      -5.743  21.045  67.809  0.00  0.00    -0.083 A 
ATOM     66  H50 non d ame      -5.273  20.514  69.851  0.00  0.00     0.083 H 
ATOM     67  C33 non d ame      -6.652  20.905  66.769  0.00  0.00    -0.082 A 
ATOM     68  H51 non d ame      -4.849  21.653  67.669  0.00  0.00     0.083 H 
ATOM     69  C34 non d ame      -7.798  20.129  66.933  0.00  0.00    -0.075 A 
ATOM     70  H52 non d ame      -6.464  21.406  65.818  0.00  0.00     0.083 H 
ATOM     71  H53 non d ame      -8.506  20.023  66.110  0.00  0.00     0.084 H 
ENDBRANCH  58  61
ENDBRANCH  57  58
ENDBRANCH  55  57
ENDBRANCH  52  55
ENDBRANCH  49  52
ENDBRANCH  47  49
BRANCH  47  72
ATOM     72  C24 non d ame     -11.150  14.850  70.764  0.00  0.00    -0.039 C 
ATOM     73  H35 non d ame     -10.286  14.202  70.912  0.00  0.00     0.036 H 
ATOM     74  H36 non d ame     -11.025  15.933  70.763  0.00  0.00     0.036 H 
BRANCH  72  75
ATOM     75  C25 non d ame     -12.208  14.498  71.915  0.00  0.00    -0.001 C 
ATOM     76  C26 non d ame     -13.639  14.046  71.242  0.00  0.00    -0.035 C 
ATOM     77  C27 non d ame     -14.634  14.772  71.804  0.00  0.00     0.085 C 
ATOM     78  H38 non d ame     -13.668  14.342  70.194  0.00  0.00     0.036 H 
ATOM     79  H39 non d ame     -13.878  13.021  71.526  0.00  0.00     0.036 H 
ATOM     80  N5  non d ame     -13.983  15.903  72.561  0.00  0.00    -0.049 N 
ATOM     81  H40 non d ame     -15.203  15.183  70.969  0.00  0.00     0.075 H 
ATOM     82  H41 non d ame     -15.117  14.102  72.515  0.00  0.00     0.075 H 
ATOM     83  C28 non d ame     -12.420  15.516  72.681  0.00  0.00     0.193 C 
ATOM     84  H42 non d ame     -14.066  16.724  71.977  0.00  0.00     0.280 HD
ATOM     85  H43 non d ame     -14.387  15.900  73.486  0.00  0.00     0.280 HD
ATOM     86  H44 non d ame     -12.013  15.144  73.622  0.00  0.00     0.129 H 
ATOM     87  H37 non d ame     -11.787  13.840  72.675  0.00  0.00     0.046 H 
BRANCH  83  88
ATOM     88  O6  non d ame     -11.606  16.635  72.329  0.00  0.00    -0.369 OA
ATOM     89  H45 non d ame     -12.042  17.446  72.600  0.00  0.00     0.212 HD
ENDBRANCH  83  88
ENDBRANCH  72  75
ENDBRANCH  47  72
ENDBRANCH  45  47
ENDBRANCH   1  43
BRANCH   1  90
ATOM     90  C16 non d ame     -10.362  11.235  66.396  0.00  0.00    -0.035 C 
ATOM     91  H21 non d ame     -11.159  10.594  66.019  0.00  0.00     0.037 H 
ATOM     92  H22 non d ame     -10.416  12.313  66.250  0.00  0.00     0.037 H 
BRANCH  90  93
ATOM     93  C17 non d ame      -9.048  10.760  65.700  0.00  0.00    -0.059 C 
ATOM     94  H23 non d ame      -8.853  11.434  64.867  0.00  0.00     0.038 H 
BRANCH  93  95
ATOM     95  C18 non d ame      -7.817  10.819  66.660  0.00  0.00    -0.073 C 
ATOM     96  H24 non d ame      -8.118  10.495  67.657  0.00  0.00     0.028 H 
ATOM     97  H25 non d ame      -7.033  10.161  66.286  0.00  0.00     0.028 H 
ATOM     98  H26 non d ame      -7.441  11.841  66.707  0.00  0.00     0.028 H 
ENDBRANCH  93  95
BRANCH  93  99
ATOM     99  C19 non d ame      -9.216   9.355  65.116  0.00  0.00    -0.073 C 
ATOM    100  H27 non d ame      -8.244   8.970  64.809  0.00  0.00     0.028 H 
ATOM    101  H28 non d ame      -9.646   8.696  65.871  0.00  0.00     0.028 H 
ATOM    102  H29 non d ame      -9.878   9.398  64.252  0.00  0.00     0.028 H 
ENDBRANCH  93  99
ENDBRANCH  90  93
ENDBRANCH   1  90
TORSDOF 26
ENDMDL
MODEL 17
REMARK VINA RESULT:      -7.0      2.865      6.254
REMARK  26 active torsions:
REMARK  status: ('A' for Active; 'I' for Inactive)
REMARK    1  A    between atoms: C2_2  and  C3_3 
REMARK    2  A    between atoms: C4_6  and  C5_7 
REMARK       I    between atoms: C5_7  and  N2_9 
REMARK    3  A    between atoms: N2_9  and  C6_10 
REMARK    4  A    between atoms: C6_10  and  C7_11 
REMARK    5  A    between atoms: C6_10  and  C8_13 
REMARK       I    between atoms: C7_11  and  N3_14 
REMARK    6  A    between atoms: N3_14  and  C9_15 
REMARK    7  A    between atoms: C9_15  and  C10_16 
REMARK    8  A    between atoms: C9_15  and  C11_18 
REMARK       I    between atoms: C10_16  and  N4_21 
REMARK    9  A    between atoms: C11_18  and  C12_19 
REMARK   10  A    between atoms: C11_18  and  C13_20 
REMARK   11  A    between atoms: N4_21  and  C14_22 
REMARK   12  A    between atoms: C14_22  and  C15_23 
REMARK   13  A    between atoms: C14_22  and  C16_25 
REMARK       I    between atoms: C15_23  and  N6_40 
REMARK   14  A    between atoms: C16_25  and  C17_26 
REMARK   15  A    between atoms: C17_26  and  C18_27 
REMARK   16  A    between atoms: C17_26  and  C19_28 
REMARK   17  A    between atoms: C20_29  and  C21_30 
REMARK   18  A    between atoms: C20_29  and  C24_33 
REMARK   19  A    between atoms: C20_29  and  N6_40 
REMARK   20  A    between atoms: C21_30  and  C22_31 
REMARK   21  A    between atoms: C22_31  and  C23_32 
REMARK   22  A    between atoms: C23_32  and  O8_43 
REMARK   23  A    between atoms: C24_33  and  C25_34 
REMARK   24  A    between atoms: C28_38  and  O6_39 
REMARK   25  A    between atoms: C29_42  and  O8_43 
REMARK   26  A    between atoms: C29_42  and  C35_49 
ROOT
ATOM      1  C14 non d ame      -8.763   7.387  69.034  0.00  0.00     0.089 C 
ATOM      2  H20 non d ame      -9.471   6.810  68.439  0.00  0.00     0.087 H 
ENDROOT
BRANCH   1   3
ATOM      3  N4  non d ame      -7.564   7.573  68.230  0.00  0.00    -0.346 N 
ATOM      4  C10 non d ame      -7.282   6.662  67.061  0.00  0.00     0.241 C 
ATOM      5  O4  non d ame      -8.034   5.785  66.788  0.00  0.00    -0.271 OA
ATOM      6  H19 non d ame      -6.936   8.323  68.480  0.00  0.00     0.163 HD
BRANCH   4   7
ATOM      7  C9  non d ame      -6.039   6.872  66.237  0.00  0.00     0.092 C 
ATOM      8  H11 non d ame      -5.968   6.083  65.488  0.00  0.00     0.088 H 
BRANCH   7   9
ATOM      9  N3  non d ame      -6.141   8.144  65.514  0.00  0.00    -0.346 N 
ATOM     10  C7  non d ame      -5.921   8.185  64.090  0.00  0.00     0.240 C 
ATOM     11  O3  non d ame      -5.660   7.203  63.508  0.00  0.00    -0.271 OA
ATOM     12  H10 non d ame      -6.363   8.999  66.003  0.00  0.00     0.163 HD
BRANCH  10  13
ATOM     13  C6  non d ame      -6.027   9.542  63.328  0.00  0.00     0.086 C 
ATOM     14  H6  non d ame      -6.215   9.414  62.262  0.00  0.00     0.086 H 
BRANCH  13  15
ATOM     15  N2  non d ame      -7.150  10.295  63.862  0.00  0.00    -0.343 N 
ATOM     16  C5  non d ame      -8.476  10.135  63.259  0.00  0.00     0.273 C 
ATOM     17  O2  non d ame      -8.627   9.401  62.346  0.00  0.00    -0.266 OA
ATOM     18  H5  non d ame      -7.012  10.922  64.641  0.00  0.00     0.163 HD
BRANCH  16  19
ATOM     19  C4  non d ame      -9.673  10.923  63.814  0.00  0.00     0.154 A 
ATOM     20  C1  non d ame     -10.331  12.039  63.205  0.00  0.00    -0.017 A 
ATOM     21  C2  non d ame     -11.357  12.394  64.109  0.00  0.00     0.077 A 
ATOM     22  H1  non d ame     -10.099  12.518  62.253  0.00  0.00     0.091 H 
ATOM     23  O1  non d ame     -11.289  11.571  65.115  0.00  0.00    -0.218 OA
ATOM     24  N1  non d ame     -10.313  10.704  64.966  0.00  0.00    -0.123 NA
BRANCH  21  25
ATOM     25  C3  non d ame     -12.358  13.528  63.936  0.00  0.00    -0.029 C 
ATOM     26  H2  non d ame     -12.932  13.371  63.021  0.00  0.00     0.036 H 
ATOM     27  H3  non d ame     -13.035  13.548  64.790  0.00  0.00     0.036 H 
ATOM     28  H4  non d ame     -11.826  14.477  63.872  0.00  0.00     0.036 H 
ENDBRANCH  21  25
ENDBRANCH  16  19
ENDBRANCH  13  15
BRANCH  13  29
ATOM     29  C8  non d ame      -4.751  10.324  63.507  0.00  0.00    -0.049 C 
ATOM     30  H7  non d ame      -4.673  11.078  62.725  0.00  0.00     0.030 H 
ATOM     31  H8  non d ame      -4.758  10.812  64.483  0.00  0.00     0.030 H 
ATOM     32  H9  non d ame      -3.899   9.648  63.445  0.00  0.00     0.030 H 
ENDBRANCH  13  29
ENDBRANCH  10  13
ENDBRANCH   7   9
BRANCH   7  33
ATOM     33  C11 non d ame      -4.795   6.907  67.172  0.00  0.00    -0.033 C 
ATOM     34  H12 non d ame      -5.129   6.631  68.172  0.00  0.00     0.042 H 
BRANCH  33  35
ATOM     35  C12 non d ame      -3.723   5.863  66.730  0.00  0.00    -0.071 C 
ATOM     36  H13 non d ame      -2.864   6.382  66.307  0.00  0.00     0.028 H 
ATOM     37  H14 non d ame      -3.405   5.280  67.595  0.00  0.00     0.028 H 
ATOM     38  H15 non d ame      -4.152   5.197  65.982  0.00  0.00     0.028 H 
ENDBRANCH  33  35
BRANCH  33  39
ATOM     39  C13 non d ame      -4.190   8.345  67.243  0.00  0.00    -0.071 C 
ATOM     40  H16 non d ame      -4.977   9.060  67.481  0.00  0.00     0.028 H 
ATOM     41  H17 non d ame      -3.422   8.379  68.016  0.00  0.00     0.028 H 
ATOM     42  H18 non d ame      -3.747   8.600  66.280  0.00  0.00     0.028 H 
ENDBRANCH  33  39
ENDBRANCH   7  33
ENDBRANCH   4   7
ENDBRANCH   1   3
BRANCH   1  43
ATOM     43  C15 non d ame      -9.322   8.786  69.420  0.00  0.00     0.240 C 
ATOM     44  O5  non d ame      -8.578   9.641  69.781  0.00  0.00    -0.271 OA
ATOM     45  N6  non d ame     -10.784   9.064  69.331  0.00  0.00    -0.355 N 
ATOM     46  H46 non d ame     -11.425   8.348  69.021  0.00  0.00     0.162 HD
BRANCH  45  47
ATOM     47  C20 non d ame     -11.299  10.400  69.700  0.00  0.00     0.013 C 
ATOM     48  H30 non d ame     -10.577  10.864  70.372  0.00  0.00     0.072 H 
BRANCH  47  49
ATOM     49  C21 non d ame     -12.630  10.247  70.401  0.00  0.00    -0.038 C 
ATOM     50  H31 non d ame     -12.990  11.261  70.577  0.00  0.00     0.036 H 
ATOM     51  H32 non d ame     -13.211   9.561  69.782  0.00  0.00     0.036 H 
BRANCH  49  52
ATOM     52  C22 non d ame     -12.504   9.581  71.788  0.00  0.00     0.018 C 
ATOM     53  H33 non d ame     -11.561   9.034  71.769  0.00  0.00     0.048 H 
ATOM     54  H34 non d ame     -12.657  10.379  72.514  0.00  0.00     0.048 H 
BRANCH  52  55
ATOM     55  C23 non d ame     -13.606   8.522  72.076  0.00  0.00     0.259 C 
ATOM     56  O7  non d ame     -14.633   8.844  72.579  0.00  0.00    -0.265 OA
BRANCH  55  57
ATOM     57  O8  non d ame     -13.368   7.160  71.744  0.00  0.00    -0.317 OA
BRANCH  57  58
ATOM     58  C29 non d ame     -12.017   6.879  71.365  0.00  0.00     0.052 C 
ATOM     59  H47 non d ame     -12.080   6.114  70.593  0.00  0.00     0.082 H 
ATOM     60  H48 non d ame     -11.568   7.846  71.138  0.00  0.00     0.082 H 
BRANCH  58  61
ATOM     61  C35 non d ame     -11.289   6.277  72.596  0.00  0.00    -0.034 A 
ATOM     62  C30 non d ame     -11.511   4.953  72.957  0.00  0.00    -0.075 A 
ATOM     63  C31 non d ame     -10.858   4.411  74.063  0.00  0.00    -0.082 A 
ATOM     64  H49 non d ame     -12.197   4.339  72.374  0.00  0.00     0.084 H 
ATOM     65  C32 non d ame      -9.980   5.202  74.810  0.00  0.00    -0.083 A 
ATOM     66  H50 non d ame     -11.032   3.373  74.342  0.00  0.00     0.083 H 
ATOM     67  C33 non d ame      -9.764   6.524  74.448  0.00  0.00    -0.082 A 
ATOM     68  H51 non d ame      -9.465   4.787  75.677  0.00  0.00     0.083 H 
ATOM     69  C34 non d ame     -10.413   7.068  73.342  0.00  0.00    -0.075 A 
ATOM     70  H52 non d ame      -9.080   7.139  75.035  0.00  0.00     0.083 H 
ATOM     71  H53 non d ame     -10.237   8.108  73.063  0.00  0.00     0.084 H 
ENDBRANCH  58  61
ENDBRANCH  57  58
ENDBRANCH  55  57
ENDBRANCH  52  55
ENDBRANCH  49  52
ENDBRANCH  47  49
BRANCH  47  72
ATOM     72  C24 non d ame     -11.479  11.250  68.444  0.00  0.00    -0.039 C 
ATOM     73  H35 non d ame     -10.917  10.737  67.664  0.00  0.00     0.036 H 
ATOM     74  H36 non d ame     -12.555  11.388  68.338  0.00  0.00     0.036 H 
BRANCH  72  75
ATOM     75  C25 non d ame     -10.830  12.705  68.615  0.00  0.00    -0.001 C 
ATOM     76  C26 non d ame     -11.825  13.842  67.966  0.00  0.00    -0.035 C 
ATOM     77  C27 non d ame     -11.109  14.615  67.116  0.00  0.00     0.085 C 
ATOM     78  H38 non d ame     -12.562  13.367  67.319  0.00  0.00     0.036 H 
ATOM     79  H39 non d ame     -12.147  14.542  68.738  0.00  0.00     0.036 H 
ATOM     80  N5  non d ame      -9.796  13.910  66.877  0.00  0.00    -0.049 N 
ATOM     81  H40 non d ame     -11.678  14.632  66.186  0.00  0.00     0.075 H 
ATOM     82  H41 non d ame     -10.919  15.543  67.657  0.00  0.00     0.075 H 
ATOM     83  C28 non d ame      -9.684  12.778  68.024  0.00  0.00     0.193 C 
ATOM     84  H42 non d ame      -9.876  13.451  65.981  0.00  0.00     0.280 HD
ATOM     85  H43 non d ame      -9.070  14.595  67.030  0.00  0.00     0.280 HD
ATOM     86  H44 non d ame      -9.027  12.922  68.881  0.00  0.00     0.129 H 
ATOM     87  H37 non d ame     -10.472  12.880  69.629  0.00  0.00     0.046 H 
BRANCH  83  88
ATOM     88  O6  non d ame      -9.294  11.531  67.448  0.00  0.00    -0.369 OA
ATOM     89  H45 non d ame      -8.935  10.961  68.132  0.00  0.00     0.212 HD
ENDBRANCH  83  88
ENDBRANCH  72  75
ENDBRANCH  47  72
ENDBRANCH  45  47
ENDBRANCH   1  43
BRANCH   1  90
ATOM     90  C16 non d ame      -8.401   6.615  70.294  0.00  0.00    -0.035 C 
ATOM     91  H21 non d ame      -7.351   6.842  70.479  0.00  0.00     0.037 H 
ATOM     92  H22 non d ame      -9.156   6.893  71.028  0.00  0.00     0.037 H 
BRANCH  90  93
ATOM     93  C17 non d ame      -8.495   5.066  70.128  0.00  0.00    -0.059 C 
ATOM     94  H23 non d ame      -7.750   4.767  69.391  0.00  0.00     0.038 H 
BRANCH  93  95
ATOM     95  C18 non d ame      -8.180   4.310  71.457  0.00  0.00    -0.073 C 
ATOM     96  H24 non d ame      -7.563   4.941  72.097  0.00  0.00     0.028 H 
ATOM     97  H25 non d ame      -9.113   4.074  71.971  0.00  0.00     0.028 H 
ATOM     98  H26 non d ame      -7.647   3.386  71.234  0.00  0.00     0.028 H 
ENDBRANCH  93  95
BRANCH  93  99
ATOM     99  C19 non d ame      -9.865   4.657  69.579  0.00  0.00    -0.073 C 
ATOM    100  H27 non d ame      -9.928   4.926  68.525  0.00  0.00     0.028 H 
ATOM    101  H28 non d ame      -9.993   3.580  69.688  0.00  0.00     0.028 H 
ATOM    102  H29 non d ame     -10.647   5.174  70.134  0.00  0.00     0.028 H 
ENDBRANCH  93  99
ENDBRANCH  90  93
ENDBRANCH   1  90
TORSDOF 26
ENDMDL
MODEL 18
REMARK VINA RESULT:      -7.0      2.582      8.320
REMARK  26 active torsions:
REMARK  status: ('A' for Active; 'I' for Inactive)
REMARK    1  A    between atoms: C2_2  and  C3_3 
REMARK    2  A    between atoms: C4_6  and  C5_7 
REMARK       I    between atoms: C5_7  and  N2_9 
REMARK    3  A    between atoms: N2_9  and  C6_10 
REMARK    4  A    between atoms: C6_10  and  C7_11 
REMARK    5  A    between atoms: C6_10  and  C8_13 
REMARK       I    between atoms: C7_11  and  N3_14 
REMARK    6  A    between atoms: N3_14  and  C9_15 
REMARK    7  A    between atoms: C9_15  and  C10_16 
REMARK    8  A    between atoms: C9_15  and  C11_18 
REMARK       I    between atoms: C10_16  and  N4_21 
REMARK    9  A    between atoms: C11_18  and  C12_19 
REMARK   10  A    between atoms: C11_18  and  C13_20 
REMARK   11  A    between atoms: N4_21  and  C14_22 
REMARK   12  A    between atoms: C14_22  and  C15_23 
REMARK   13  A    between atoms: C14_22  and  C16_25 
REMARK       I    between atoms: C15_23  and  N6_40 
REMARK   14  A    between atoms: C16_25  and  C17_26 
REMARK   15  A    between atoms: C17_26  and  C18_27 
REMARK   16  A    between atoms: C17_26  and  C19_28 
REMARK   17  A    between atoms: C20_29  and  C21_30 
REMARK   18  A    between atoms: C20_29  and  C24_33 
REMARK   19  A    between atoms: C20_29  and  N6_40 
REMARK   20  A    between atoms: C21_30  and  C22_31 
REMARK   21  A    between atoms: C22_31  and  C23_32 
REMARK   22  A    between atoms: C23_32  and  O8_43 
REMARK   23  A    between atoms: C24_33  and  C25_34 
REMARK   24  A    between atoms: C28_38  and  O6_39 
REMARK   25  A    between atoms: C29_42  and  O8_43 
REMARK   26  A    between atoms: C29_42  and  C35_49 
ROOT
ATOM      1  C14 non d ame     -10.310  10.649  69.251  0.00  0.00     0.089 C 
ATOM      2  H20 non d ame      -9.607  10.296  70.006  0.00  0.00     0.087 H 
ENDROOT
BRANCH   1   3
ATOM      3  N4  non d ame      -9.854  11.956  68.803  0.00  0.00    -0.346 N 
ATOM      4  C10 non d ame      -8.383  12.220  68.595  0.00  0.00     0.241 C 
ATOM      5  O4  non d ame      -7.586  11.364  68.797  0.00  0.00    -0.271 OA
ATOM      6  H19 non d ame     -10.549  12.672  68.639  0.00  0.00     0.163 HD
BRANCH   4   7
ATOM      7  C9  non d ame      -7.929  13.577  68.126  0.00  0.00     0.092 C 
ATOM      8  H11 non d ame      -7.766  13.548  67.049  0.00  0.00     0.088 H 
BRANCH   7   9
ATOM      9  N3  non d ame      -8.987  14.560  68.376  0.00  0.00    -0.346 N 
ATOM     10  C7  non d ame      -9.754  15.091  67.276  0.00  0.00     0.240 C 
ATOM     11  O3  non d ame      -9.532  14.738  66.182  0.00  0.00    -0.271 OA
ATOM     12  H10 non d ame      -9.189  14.875  69.314  0.00  0.00     0.163 HD
BRANCH  10  13
ATOM     13  C6  non d ame     -10.876  16.139  67.549  0.00  0.00     0.086 C 
ATOM     14  H6  non d ame     -11.791  15.934  66.992  0.00  0.00     0.086 H 
BRANCH  13  15
ATOM     15  N2  non d ame     -11.230  16.095  68.958  0.00  0.00    -0.343 N 
ATOM     16  C5  non d ame     -11.979  14.949  69.478  0.00  0.00     0.273 C 
ATOM     17  O2  non d ame     -12.295  14.070  68.755  0.00  0.00    -0.266 OA
ATOM     18  H5  non d ame     -10.958  16.852  69.570  0.00  0.00     0.163 HD
BRANCH  16  19
ATOM     19  C4  non d ame     -12.357  14.888  70.967  0.00  0.00     0.154 A 
ATOM     20  C1  non d ame     -11.874  15.731  72.017  0.00  0.00    -0.017 A 
ATOM     21  C2  non d ame     -12.522  15.268  73.183  0.00  0.00     0.077 A 
ATOM     22  H1  non d ame     -11.162  16.554  71.944  0.00  0.00     0.091 H 
ATOM     23  O1  non d ame     -13.288  14.275  72.833  0.00  0.00    -0.218 OA
ATOM     24  N1  non d ame     -13.207  14.034  71.544  0.00  0.00    -0.123 NA
BRANCH  21  25
ATOM     25  C3  non d ame     -12.357  15.828  74.589  0.00  0.00    -0.029 C 
ATOM     26  H2  non d ame     -12.494  16.910  74.569  0.00  0.00     0.036 H 
ATOM     27  H3  non d ame     -13.101  15.380  75.248  0.00  0.00     0.036 H 
ATOM     28  H4  non d ame     -11.358  15.596  74.960  0.00  0.00     0.036 H 
ENDBRANCH  21  25
ENDBRANCH  16  19
ENDBRANCH  13  15
BRANCH  13  29
ATOM     29  C8  non d ame     -10.382  17.516  67.184  0.00  0.00    -0.049 C 
ATOM     30  H7  non d ame      -9.874  17.476  66.221  0.00  0.00     0.030 H 
ATOM     31  H8  non d ame     -11.229  18.201  67.120  0.00  0.00     0.030 H 
ATOM     32  H9  non d ame      -9.688  17.867  67.946  0.00  0.00     0.030 H 
ENDBRANCH  13  29
ENDBRANCH  10  13
ENDBRANCH   7   9
BRANCH   7  33
ATOM     33  C11 non d ame      -6.645  13.991  68.902  0.00  0.00    -0.033 C 
ATOM     34  H12 non d ame      -6.480  13.250  69.684  0.00  0.00     0.042 H 
BRANCH  33  35
ATOM     35  C12 non d ame      -5.391  13.979  67.973  0.00  0.00    -0.071 C 
ATOM     36  H13 non d ame      -5.470  14.788  67.246  0.00  0.00     0.028 H 
ATOM     37  H14 non d ame      -4.492  14.118  68.574  0.00  0.00     0.028 H 
ATOM     38  H15 non d ame      -5.335  13.024  67.452  0.00  0.00     0.028 H 
ENDBRANCH  33  35
BRANCH  33  39
ATOM     39  C13 non d ame      -6.830  15.384  69.586  0.00  0.00    -0.071 C 
ATOM     40  H16 non d ame      -6.379  15.364  70.578  0.00  0.00     0.028 H 
ATOM     41  H17 non d ame      -6.349  16.153  68.982  0.00  0.00     0.028 H 
ATOM     42  H18 non d ame      -7.894  15.604  69.676  0.00  0.00     0.028 H 
ENDBRANCH  33  39
ENDBRANCH   7  33
ENDBRANCH   4   7
ENDBRANCH   1   3
BRANCH   1  43
ATOM     43  C15 non d ame     -10.376   9.699  68.020  0.00  0.00     0.240 C 
ATOM     44  O5  non d ame     -11.030   8.708  68.073  0.00  0.00    -0.271 OA
ATOM     45  N6  non d ame      -9.631  10.030  66.772  0.00  0.00    -0.355 N 
ATOM     46  H46 non d ame      -9.076  10.871  66.714  0.00  0.00     0.162 HD
BRANCH  45  47
ATOM     47  C20 non d ame      -9.705   9.118  65.611  0.00  0.00     0.013 C 
ATOM     48  H30 non d ame     -10.528   8.424  65.782  0.00  0.00     0.072 H 
BRANCH  47  49
ATOM     49  C21 non d ame      -8.405   8.356  65.489  0.00  0.00    -0.038 C 
ATOM     50  H31 non d ame      -8.237   8.228  64.420  0.00  0.00     0.036 H 
ATOM     51  H32 non d ame      -7.684   8.908  66.093  0.00  0.00     0.036 H 
BRANCH  49  52
ATOM     52  C22 non d ame      -8.483   6.937  66.092  0.00  0.00     0.018 C 
ATOM     53  H33 non d ame      -7.777   6.929  66.923  0.00  0.00     0.048 H 
ATOM     54  H34 non d ame      -9.542   6.751  66.275  0.00  0.00     0.048 H 
BRANCH  52  55
ATOM     55  C23 non d ame      -8.013   5.818  65.122  0.00  0.00     0.259 C 
ATOM     56  O7  non d ame      -7.858   4.707  65.513  0.00  0.00    -0.265 OA
BRANCH  55  57
ATOM     57  O8  non d ame      -7.756   6.138  63.760  0.00  0.00    -0.317 OA
BRANCH  57  58
ATOM     58  C29 non d ame      -6.445   5.778  63.313  0.00  0.00     0.052 C 
ATOM     59  H47 non d ame      -6.151   4.923  63.921  0.00  0.00     0.082 H 
ATOM     60  H48 non d ame      -6.521   5.676  62.231  0.00  0.00     0.082 H 
BRANCH  58  61
ATOM     61  C35 non d ame      -5.490   6.959  63.630  0.00  0.00    -0.034 A 
ATOM     62  C30 non d ame      -4.622   6.882  64.714  0.00  0.00    -0.075 A 
ATOM     63  C31 non d ame      -3.764   7.942  64.999  0.00  0.00    -0.082 A 
ATOM     64  H49 non d ame      -4.614   5.990  65.340  0.00  0.00     0.084 H 
ATOM     65  C32 non d ame      -3.778   9.086  64.195  0.00  0.00    -0.083 A 
ATOM     66  H50 non d ame      -3.084   7.878  65.848  0.00  0.00     0.083 H 
ATOM     67  C33 non d ame      -4.648   9.161  63.116  0.00  0.00    -0.082 A 
ATOM     68  H51 non d ame      -3.110   9.920  64.411  0.00  0.00     0.083 H 
ATOM     69  C34 non d ame      -5.506   8.101  62.827  0.00  0.00    -0.075 A 
ATOM     70  H52 non d ame      -4.658  10.055  62.493  0.00  0.00     0.083 H 
ATOM     71  H53 non d ame      -6.186   8.167  61.976  0.00  0.00     0.084 H 
ENDBRANCH  58  61
ENDBRANCH  57  58
ENDBRANCH  55  57
ENDBRANCH  52  55
ENDBRANCH  49  52
ENDBRANCH  47  49
BRANCH  47  72
ATOM     72  C24 non d ame      -9.945   9.923  64.336  0.00  0.00    -0.039 C 
ATOM     73  H35 non d ame      -9.020   9.848  63.766  0.00  0.00     0.036 H 
ATOM     74  H36 non d ame     -10.875   9.536  63.919  0.00  0.00     0.036 H 
BRANCH  72  75
ATOM     75  C25 non d ame     -10.180  11.476  64.652  0.00  0.00    -0.001 C 
ATOM     76  C26 non d ame     -11.666  11.694  65.322  0.00  0.00    -0.035 C 
ATOM     77  C27 non d ame     -12.315  12.665  64.638  0.00  0.00     0.085 C 
ATOM     78  H38 non d ame     -12.282  10.811  65.158  0.00  0.00     0.036 H 
ATOM     79  H39 non d ame     -11.567  12.111  66.325  0.00  0.00     0.036 H 
ATOM     80  N5  non d ame     -11.540  12.902  63.364  0.00  0.00    -0.049 N 
ATOM     81  H40 non d ame     -13.290  12.245  64.388  0.00  0.00     0.075 H 
ATOM     82  H41 non d ame     -12.250  13.556  65.263  0.00  0.00     0.075 H 
ATOM     83  C28 non d ame     -10.108  12.188  63.577  0.00  0.00     0.193 C 
ATOM     84  H42 non d ame     -12.037  12.415  62.632  0.00  0.00     0.280 HD
ATOM     85  H43 non d ame     -11.395  13.899  63.298  0.00  0.00     0.280 HD
ATOM     86  H44 non d ame      -9.219  12.782  63.791  0.00  0.00     0.129 H 
ATOM     87  H37 non d ame      -9.332  11.925  65.169  0.00  0.00     0.046 H 
BRANCH  83  88
ATOM     88  O6  non d ame      -9.775  11.402  62.431  0.00  0.00    -0.369 OA
ATOM     89  H45 non d ame      -9.705  11.972  61.662  0.00  0.00     0.212 HD
ENDBRANCH  83  88
ENDBRANCH  72  75
ENDBRANCH  47  72
ENDBRANCH  45  47
ENDBRANCH   1  43
BRANCH   1  90
ATOM     90  C16 non d ame     -11.695  10.789  69.863  0.00  0.00    -0.035 C 
ATOM     91  H21 non d ame     -11.827  11.857  70.036  0.00  0.00     0.037 H 
ATOM     92  H22 non d ame     -12.365  10.260  69.185  0.00  0.00     0.037 H 
BRANCH  90  93
ATOM     93  C17 non d ame     -11.837  10.097  71.255  0.00  0.00    -0.059 C 
ATOM     94  H23 non d ame     -11.799  10.875  72.017  0.00  0.00     0.038 H 
BRANCH  93  95
ATOM     95  C18 non d ame     -13.200   9.349  71.406  0.00  0.00    -0.073 C 
ATOM     96  H24 non d ame     -14.013  10.010  71.105  0.00  0.00     0.028 H 
ATOM     97  H25 non d ame     -13.200   8.462  70.772  0.00  0.00     0.028 H 
ATOM     98  H26 non d ame     -13.339   9.052  72.446  0.00  0.00     0.028 H 
ENDBRANCH  93  95
BRANCH  93  99
ATOM     99  C19 non d ame     -10.663   9.149  71.516  0.00  0.00    -0.073 C 
ATOM    100  H27 non d ame      -9.726   9.694  71.408  0.00  0.00     0.028 H 
ATOM    101  H28 non d ame     -10.737   8.749  72.527  0.00  0.00     0.028 H 
ATOM    102  H29 non d ame     -10.692   8.329  70.798  0.00  0.00     0.028 H 
ENDBRANCH  93  99
ENDBRANCH  90  93
ENDBRANCH   1  90
TORSDOF 26
ENDMDL
MODEL 19
REMARK VINA RESULT:      -7.0      2.204      6.864
REMARK  26 active torsions:
REMARK  status: ('A' for Active; 'I' for Inactive)
REMARK    1  A    between atoms: C2_2  and  C3_3 
REMARK    2  A    between atoms: C4_6  and  C5_7 
REMARK       I    between atoms: C5_7  and  N2_9 
REMARK    3  A    between atoms: N2_9  and  C6_10 
REMARK    4  A    between atoms: C6_10  and  C7_11 
REMARK    5  A    between atoms: C6_10  and  C8_13 
REMARK       I    between atoms: C7_11  and  N3_14 
REMARK    6  A    between atoms: N3_14  and  C9_15 
REMARK    7  A    between atoms: C9_15  and  C10_16 
REMARK    8  A    between atoms: C9_15  and  C11_18 
REMARK       I    between atoms: C10_16  and  N4_21 
REMARK    9  A    between atoms: C11_18  and  C12_19 
REMARK   10  A    between atoms: C11_18  and  C13_20 
REMARK   11  A    between atoms: N4_21  and  C14_22 
REMARK   12  A    between atoms: C14_22  and  C15_23 
REMARK   13  A    between atoms: C14_22  and  C16_25 
REMARK       I    between atoms: C15_23  and  N6_40 
REMARK   14  A    between atoms: C16_25  and  C17_26 
REMARK   15  A    between atoms: C17_26  and  C18_27 
REMARK   16  A    between atoms: C17_26  and  C19_28 
REMARK   17  A    between atoms: C20_29  and  C21_30 
REMARK   18  A    between atoms: C20_29  and  C24_33 
REMARK   19  A    between atoms: C20_29  and  N6_40 
REMARK   20  A    between atoms: C21_30  and  C22_31 
REMARK   21  A    between atoms: C22_31  and  C23_32 
REMARK   22  A    between atoms: C23_32  and  O8_43 
REMARK   23  A    between atoms: C24_33  and  C25_34 
REMARK   24  A    between atoms: C28_38  and  O6_39 
REMARK   25  A    between atoms: C29_42  and  O8_43 
REMARK   26  A    between atoms: C29_42  and  C35_49 
ROOT
ATOM      1  C14 non d ame      -9.748   9.792  66.232  0.00  0.00     0.089 C 
ATOM      2  H20 non d ame     -10.722   9.792  65.744  0.00  0.00     0.087 H 
ENDROOT
BRANCH   1   3
ATOM      3  N4  non d ame      -9.721  10.914  67.159  0.00  0.00    -0.346 N 
ATOM      4  C10 non d ame     -10.969  11.722  67.413  0.00  0.00     0.241 C 
ATOM      5  O4  non d ame     -11.983  11.451  66.858  0.00  0.00    -0.271 OA
ATOM      6  H19 non d ame      -8.847  11.129  67.619  0.00  0.00     0.163 HD
BRANCH   4   7
ATOM      7  C9  non d ame     -10.924  12.876  68.379  0.00  0.00     0.092 C 
ATOM      8  H11 non d ame      -9.916  12.968  68.782  0.00  0.00     0.088 H 
BRANCH   7   9
ATOM      9  N3  non d ame     -11.219  14.123  67.665  0.00  0.00    -0.346 N 
ATOM     10  C7  non d ame     -10.147  15.017  67.303  0.00  0.00     0.240 C 
ATOM     11  O3  non d ame      -9.041  14.751  67.581  0.00  0.00    -0.271 OA
ATOM     12  H10 non d ame     -12.168  14.366  67.421  0.00  0.00     0.163 HD
BRANCH  10  13
ATOM     13  C6  non d ame     -10.468  16.343  66.547  0.00  0.00     0.086 C 
ATOM     14  H6  non d ame     -11.342  16.857  66.946  0.00  0.00     0.086 H 
BRANCH  13  15
ATOM     15  N2  non d ame      -9.345  17.255  66.698  0.00  0.00    -0.343 N 
ATOM     16  C5  non d ame      -9.480  18.426  67.567  0.00  0.00     0.273 C 
ATOM     17  O2  non d ame     -10.495  18.627  68.138  0.00  0.00    -0.266 OA
ATOM     18  H5  non d ame      -8.482  17.077  66.205  0.00  0.00     0.163 HD
BRANCH  16  19
ATOM     19  C4  non d ame      -8.301  19.397  67.738  0.00  0.00     0.154 A 
ATOM     20  C1  non d ame      -7.216  19.285  68.665  0.00  0.00    -0.017 A 
ATOM     21  C2  non d ame      -6.411  20.420  68.422  0.00  0.00     0.077 A 
ATOM     22  H1  non d ame      -7.040  18.500  69.402  0.00  0.00     0.091 H 
ATOM     23  O1  non d ame      -6.975  21.097  67.464  0.00  0.00    -0.218 OA
ATOM     24  N1  non d ame      -8.080  20.520  67.049  0.00  0.00    -0.123 NA
BRANCH  21  25
ATOM     25  C3  non d ame      -5.121  20.781  69.144  0.00  0.00    -0.029 C 
ATOM     26  H2  non d ame      -4.266  20.492  68.531  0.00  0.00     0.036 H 
ATOM     27  H3  non d ame      -5.093  21.856  69.321  0.00  0.00     0.036 H 
ATOM     28  H4  non d ame      -5.078  20.255  70.098  0.00  0.00     0.036 H 
ENDBRANCH  21  25
ENDBRANCH  16  19
ENDBRANCH  13  15
BRANCH  13  29
ATOM     29  C8  non d ame     -10.700  16.050  65.087  0.00  0.00    -0.049 C 
ATOM     30  H7  non d ame     -11.001  15.008  64.968  0.00  0.00     0.030 H 
ATOM     31  H8  non d ame     -11.489  16.701  64.706  0.00  0.00     0.030 H 
ATOM     32  H9  non d ame      -9.782  16.227  64.529  0.00  0.00     0.030 H 
ENDBRANCH  13  29
ENDBRANCH  10  13
ENDBRANCH   7   9
BRANCH   7  33
ATOM     33  C11 non d ame     -11.985  12.659  69.497  0.00  0.00    -0.033 C 
ATOM     34  H12 non d ame     -12.962  12.604  69.017  0.00  0.00     0.042 H 
BRANCH  33  35
ATOM     35  C12 non d ame     -11.754  11.309  70.245  0.00  0.00    -0.071 C 
ATOM     36  H13 non d ame     -12.345  10.525  69.770  0.00  0.00     0.028 H 
ATOM     37  H14 non d ame     -10.698  11.044  70.200  0.00  0.00     0.028 H 
ATOM     38  H15 non d ame     -12.059  11.414  71.286  0.00  0.00     0.028 H 
ENDBRANCH  33  35
BRANCH  33  39
ATOM     39  C13 non d ame     -12.002  13.862  70.493  0.00  0.00    -0.071 C 
ATOM     40  H16 non d ame     -12.438  13.544  71.440  0.00  0.00     0.028 H 
ATOM     41  H17 non d ame     -10.983  14.211  70.660  0.00  0.00     0.028 H 
ATOM     42  H18 non d ame     -12.598  14.672  70.073  0.00  0.00     0.028 H 
ENDBRANCH  33  39
ENDBRANCH   7  33
ENDBRANCH   4   7
ENDBRANCH   1   3
BRANCH   1  43
ATOM     43  C15 non d ame      -9.491   8.483  67.033  0.00  0.00     0.240 C 
ATOM     44  O5  non d ame      -8.390   8.216  67.394  0.00  0.00    -0.271 OA
ATOM     45  N6  non d ame     -10.620   7.565  67.358  0.00  0.00    -0.355 N 
ATOM     46  H46 non d ame     -11.560   7.782  67.061  0.00  0.00     0.162 HD
BRANCH  45  47
ATOM     47  C20 non d ame     -10.359   6.325  68.121  0.00  0.00     0.013 C 
ATOM     48  H30 non d ame      -9.373   6.412  68.576  0.00  0.00     0.072 H 
BRANCH  47  49
ATOM     49  C21 non d ame     -10.390   5.142  67.180  0.00  0.00    -0.038 C 
ATOM     50  H31 non d ame     -10.623   4.277  67.801  0.00  0.00     0.036 H 
ATOM     51  H32 non d ame     -11.062   5.429  66.369  0.00  0.00     0.036 H 
BRANCH  49  52
ATOM     52  C22 non d ame      -9.019   4.858  66.529  0.00  0.00     0.018 C 
ATOM     53  H33 non d ame      -8.331   5.586  66.959  0.00  0.00     0.048 H 
ATOM     54  H34 non d ame      -8.842   3.791  66.670  0.00  0.00     0.048 H 
BRANCH  52  55
ATOM     55  C23 non d ame      -8.993   5.099  64.994  0.00  0.00     0.259 C 
ATOM     56  O7  non d ame      -9.614   4.398  64.264  0.00  0.00    -0.265 OA
BRANCH  55  57
ATOM     57  O8  non d ame      -8.205   6.160  64.469  0.00  0.00    -0.317 OA
BRANCH  57  58
ATOM     58  C29 non d ame      -6.866   5.783  64.134  0.00  0.00     0.052 C 
ATOM     59  H47 non d ame      -6.518   5.164  64.960  0.00  0.00     0.082 H 
ATOM     60  H48 non d ame      -6.921   5.367  63.127  0.00  0.00     0.082 H 
BRANCH  58  61
ATOM     61  C35 non d ame      -6.003   7.071  64.087  0.00  0.00    -0.034 A 
ATOM     62  C30 non d ame      -5.734   7.772  65.258  0.00  0.00    -0.075 A 
ATOM     63  C31 non d ame      -4.958   8.929  65.216  0.00  0.00    -0.082 A 
ATOM     64  H49 non d ame      -6.130   7.415  66.208  0.00  0.00     0.084 H 
ATOM     65  C32 non d ame      -4.453   9.387  63.996  0.00  0.00    -0.083 A 
ATOM     66  H50 non d ame      -4.748   9.476  66.135  0.00  0.00     0.083 H 
ATOM     67  C33 non d ame      -4.726   8.686  62.829  0.00  0.00    -0.082 A 
ATOM     68  H51 non d ame      -3.845  10.291  63.954  0.00  0.00     0.083 H 
ATOM     69  C34 non d ame      -5.499   7.527  62.867  0.00  0.00    -0.075 A 
ATOM     70  H52 non d ame      -4.332   9.047  61.879  0.00  0.00     0.083 H 
ATOM     71  H53 non d ame      -5.709   6.981  61.946  0.00  0.00     0.084 H 
ENDBRANCH  58  61
ENDBRANCH  57  58
ENDBRANCH  55  57
ENDBRANCH  52  55
ENDBRANCH  49  52
ENDBRANCH  47  49
BRANCH  47  72
ATOM     72  C24 non d ame     -11.427   6.148  69.198  0.00  0.00    -0.039 C 
ATOM     73  H35 non d ame     -12.200   6.880  68.964  0.00  0.00     0.036 H 
ATOM     74  H36 non d ame     -11.667   5.084  69.198  0.00  0.00     0.036 H 
BRANCH  72  75
ATOM     75  C25 non d ame     -10.864   6.504  70.655  0.00  0.00    -0.001 C 
ATOM     76  C26 non d ame     -10.293   5.146  71.384  0.00  0.00    -0.035 C 
ATOM     77  C27 non d ame     -10.849   5.043  72.614  0.00  0.00     0.085 C 
ATOM     78  H38 non d ame     -10.661   4.261  70.864  0.00  0.00     0.036 H 
ATOM     79  H39 non d ame      -9.228   5.252  71.592  0.00  0.00     0.036 H 
ATOM     80  N5  non d ame     -11.991   6.028  72.667  0.00  0.00    -0.049 N 
ATOM     81  H40 non d ame     -11.249   4.031  72.671  0.00  0.00     0.075 H 
ATOM     82  H41 non d ame     -10.073   5.363  73.311  0.00  0.00     0.075 H 
ATOM     83  C28 non d ame     -11.788   7.011  71.402  0.00  0.00     0.193 C 
ATOM     84  H42 non d ame     -12.837   5.494  72.525  0.00  0.00     0.280 HD
ATOM     85  H43 non d ame     -11.869   6.565  73.513  0.00  0.00     0.280 HD
ATOM     86  H44 non d ame     -11.399   8.020  71.542  0.00  0.00     0.129 H 
ATOM     87  H37 non d ame     -10.207   7.374  70.642  0.00  0.00     0.046 H 
BRANCH  83  88
ATOM     88  O6  non d ame     -13.022   7.171  70.700  0.00  0.00    -0.369 OA
ATOM     89  H45 non d ame     -13.105   8.080  70.401  0.00  0.00     0.212 HD
ENDBRANCH  83  88
ENDBRANCH  72  75
ENDBRANCH  47  72
ENDBRANCH  45  47
ENDBRANCH   1  43
BRANCH   1  90
ATOM     90  C16 non d ame      -8.653   9.978  65.194  0.00  0.00    -0.035 C 
ATOM     91  H21 non d ame      -8.229  10.963  65.395  0.00  0.00     0.037 H 
ATOM     92  H22 non d ame      -8.027   9.090  65.272  0.00  0.00     0.037 H 
BRANCH  90  93
ATOM     93  C17 non d ame      -9.182  10.019  63.725  0.00  0.00    -0.059 C 
ATOM     94  H23 non d ame      -9.582   9.032  63.491  0.00  0.00     0.038 H 
BRANCH  93  95
ATOM     95  C18 non d ame     -10.335  11.056  63.542  0.00  0.00    -0.073 C 
ATOM     96  H24 non d ame     -10.335  11.421  62.514  0.00  0.00     0.028 H 
ATOM     97  H25 non d ame     -11.291  10.578  63.756  0.00  0.00     0.028 H 
ATOM     98  H26 non d ame     -10.185  11.891  64.225  0.00  0.00     0.028 H 
ENDBRANCH  93  95
BRANCH  93  99
ATOM     99  C19 non d ame      -8.042  10.291  62.741  0.00  0.00    -0.073 C 
ATOM    100  H27 non d ame      -8.291  11.157  62.128  0.00  0.00     0.028 H 
ATOM    101  H28 non d ame      -7.123  10.489  63.294  0.00  0.00     0.028 H 
ATOM    102  H29 non d ame      -7.900   9.422  62.100  0.00  0.00     0.028 H 
ENDBRANCH  93  99
ENDBRANCH  90  93
ENDBRANCH   1  90
TORSDOF 26
ENDMDL
MODEL 20
REMARK VINA RESULT:      -6.9      2.973      5.769
REMARK  26 active torsions:
REMARK  status: ('A' for Active; 'I' for Inactive)
REMARK    1  A    between atoms: C2_2  and  C3_3 
REMARK    2  A    between atoms: C4_6  and  C5_7 
REMARK       I    between atoms: C5_7  and  N2_9 
REMARK    3  A    between atoms: N2_9  and  C6_10 
REMARK    4  A    between atoms: C6_10  and  C7_11 
REMARK    5  A    between atoms: C6_10  and  C8_13 
REMARK       I    between atoms: C7_11  and  N3_14 
REMARK    6  A    between atoms: N3_14  and  C9_15 
REMARK    7  A    between atoms: C9_15  and  C10_16 
REMARK    8  A    between atoms: C9_15  and  C11_18 
REMARK       I    between atoms: C10_16  and  N4_21 
REMARK    9  A    between atoms: C11_18  and  C12_19 
REMARK   10  A    between atoms: C11_18  and  C13_20 
REMARK   11  A    between atoms: N4_21  and  C14_22 
REMARK   12  A    between atoms: C14_22  and  C15_23 
REMARK   13  A    between atoms: C14_22  and  C16_25 
REMARK       I    between atoms: C15_23  and  N6_40 
REMARK   14  A    between atoms: C16_25  and  C17_26 
REMARK   15  A    between atoms: C17_26  and  C18_27 
REMARK   16  A    between atoms: C17_26  and  C19_28 
REMARK   17  A    between atoms: C20_29  and  C21_30 
REMARK   18  A    between atoms: C20_29  and  C24_33 
REMARK   19  A    between atoms: C20_29  and  N6_40 
REMARK   20  A    between atoms: C21_30  and  C22_31 
REMARK   21  A    between atoms: C22_31  and  C23_32 
REMARK   22  A    between atoms: C23_32  and  O8_43 
REMARK   23  A    between atoms: C24_33  and  C25_34 
REMARK   24  A    between atoms: C28_38  and  O6_39 
REMARK   25  A    between atoms: C29_42  and  O8_43 
REMARK   26  A    between atoms: C29_42  and  C35_49 
ROOT
ATOM      1  C14 non d ame      -8.081   8.742  62.984  0.00  0.00     0.089 C 
ATOM      2  H20 non d ame      -8.900   9.099  62.360  0.00  0.00     0.087 H 
ENDROOT
BRANCH   1   3
ATOM      3  N4  non d ame      -8.204   9.388  64.282  0.00  0.00    -0.346 N 
ATOM      4  C10 non d ame      -9.415  10.228  64.603  0.00  0.00     0.241 C 
ATOM      5  O4  non d ame     -10.276  10.370  63.799  0.00  0.00    -0.271 OA
ATOM      6  H19 non d ame      -7.458   9.256  64.951  0.00  0.00     0.163 HD
BRANCH   4   7
ATOM      7  C9  non d ame      -9.528  10.885  65.953  0.00  0.00     0.092 C 
ATOM      8  H11 non d ame      -8.594  11.398  66.182  0.00  0.00     0.088 H 
BRANCH   7   9
ATOM      9  N3  non d ame     -10.582  11.903  65.914  0.00  0.00    -0.346 N 
ATOM     10  C7  non d ame     -10.303  13.248  66.353  0.00  0.00     0.240 C 
ATOM     11  O3  non d ame      -9.235  13.528  66.742  0.00  0.00    -0.271 OA
ATOM     12  H10 non d ame     -11.509  11.675  65.583  0.00  0.00     0.163 HD
BRANCH  10  13
ATOM     13  C6  non d ame     -11.430  14.326  66.312  0.00  0.00     0.086 C 
ATOM     14  H6  non d ame     -12.079  14.292  67.188  0.00  0.00     0.086 H 
BRANCH  13  15
ATOM     15  N2  non d ame     -10.820  15.645  66.298  0.00  0.00    -0.343 N 
ATOM     16  C5  non d ame     -10.864  16.473  67.505  0.00  0.00     0.273 C 
ATOM     17  O2  non d ame     -11.394  16.069  68.481  0.00  0.00    -0.266 OA
ATOM     18  H5  non d ame     -10.371  15.983  65.459  0.00  0.00     0.163 HD
BRANCH  16  19
ATOM     19  C4  non d ame     -10.221  17.868  67.505  0.00  0.00     0.154 A 
ATOM     20  C1  non d ame      -8.831  18.180  67.362  0.00  0.00    -0.017 A 
ATOM     21  C2  non d ame      -8.766  19.590  67.430  0.00  0.00     0.077 A 
ATOM     22  H1  non d ame      -7.998  17.490  67.230  0.00  0.00     0.091 H 
ATOM     23  O1  non d ame      -9.981  20.027  67.591  0.00  0.00    -0.218 OA
ATOM     24  N1  non d ame     -10.848  19.041  67.639  0.00  0.00    -0.123 NA
BRANCH  21  25
ATOM     25  C3  non d ame      -7.507  20.440  67.329  0.00  0.00    -0.029 C 
ATOM     26  H2  non d ame      -7.338  20.720  66.289  0.00  0.00     0.036 H 
ATOM     27  H3  non d ame      -7.627  21.339  67.933  0.00  0.00     0.036 H 
ATOM     28  H4  non d ame      -6.652  19.869  67.695  0.00  0.00     0.036 H 
ENDBRANCH  21  25
ENDBRANCH  16  19
ENDBRANCH  13  15
BRANCH  13  29
ATOM     29  C8  non d ame     -12.270  14.133  65.076  0.00  0.00    -0.049 C 
ATOM     30  H7  non d ame     -11.667  14.334  64.190  0.00  0.00     0.030 H 
ATOM     31  H8  non d ame     -12.634  13.105  65.041  0.00  0.00     0.030 H 
ATOM     32  H9  non d ame     -13.117  14.817  65.101  0.00  0.00     0.030 H 
ENDBRANCH  13  29
ENDBRANCH  10  13
ENDBRANCH   7   9
BRANCH   7  33
ATOM     33  C11 non d ame      -9.885   9.813  67.024  0.00  0.00    -0.033 C 
ATOM     34  H12 non d ame     -10.008   8.861  66.508  0.00  0.00     0.042 H 
BRANCH  33  35
ATOM     35  C12 non d ame      -8.731   9.639  68.060  0.00  0.00    -0.071 C 
ATOM     36  H13 non d ame      -8.764   8.631  68.475  0.00  0.00     0.028 H 
ATOM     37  H14 non d ame      -7.772   9.796  67.567  0.00  0.00     0.028 H 
ATOM     38  H15 non d ame      -8.851  10.367  68.862  0.00  0.00     0.028 H 
ENDBRANCH  33  35
BRANCH  33  39
ATOM     39  C13 non d ame     -11.235  10.157  67.732  0.00  0.00    -0.071 C 
ATOM     40  H16 non d ame     -11.114  10.062  68.810  0.00  0.00     0.028 H 
ATOM     41  H17 non d ame     -11.524  11.179  67.486  0.00  0.00     0.028 H 
ATOM     42  H18 non d ame     -12.008   9.469  67.391  0.00  0.00     0.028 H 
ENDBRANCH  33  39
ENDBRANCH   7  33
ENDBRANCH   4   7
ENDBRANCH   1   3
BRANCH   1  43
ATOM     43  C15 non d ame      -8.130   7.201  63.191  0.00  0.00     0.240 C 
ATOM     44  O5  non d ame      -8.026   6.474  62.255  0.00  0.00    -0.271 OA
ATOM     45  N6  non d ame      -8.297   6.629  64.558  0.00  0.00    -0.355 N 
ATOM     46  H46 non d ame      -8.382   7.236  65.361  0.00  0.00     0.162 HD
BRANCH  45  47
ATOM     47  C20 non d ame      -8.340   5.162  64.738  0.00  0.00     0.013 C 
ATOM     48  H30 non d ame      -8.066   4.700  63.790  0.00  0.00     0.072 H 
BRANCH  47  49
ATOM     49  C21 non d ame      -9.741   4.747  65.129  0.00  0.00    -0.038 C 
ATOM     50  H31 non d ame     -10.384   5.581  64.849  0.00  0.00     0.036 H 
ATOM     51  H32 non d ame      -9.892   3.765  64.678  0.00  0.00     0.036 H 
BRANCH  49  52
ATOM     52  C22 non d ame      -9.907   4.558  66.652  0.00  0.00     0.018 C 
ATOM     53  H33 non d ame     -10.721   3.842  66.774  0.00  0.00     0.048 H 
ATOM     54  H34 non d ame      -8.912   4.321  67.031  0.00  0.00     0.048 H 
BRANCH  52  55
ATOM     55  C23 non d ame     -10.355   5.846  67.397  0.00  0.00     0.259 C 
ATOM     56  O7  non d ame     -11.236   6.516  66.965  0.00  0.00    -0.265 OA
BRANCH  55  57
ATOM     57  O8  non d ame      -9.691   6.224  68.596  0.00  0.00    -0.317 OA
BRANCH  57  58
ATOM     58  C29 non d ame     -10.317   5.740  69.788  0.00  0.00     0.052 C 
ATOM     59  H47 non d ame     -11.100   5.059  69.455  0.00  0.00     0.082 H 
ATOM     60  H48 non d ame      -9.507   5.372  70.418  0.00  0.00     0.082 H 
BRANCH  58  61
ATOM     61  C35 non d ame     -10.985   6.946  70.502  0.00  0.00    -0.034 A 
ATOM     62  C30 non d ame     -12.341   6.908  70.811  0.00  0.00    -0.075 A 
ATOM     63  C31 non d ame     -12.941   7.990  71.452  0.00  0.00    -0.082 A 
ATOM     64  H49 non d ame     -12.932   6.031  70.552  0.00  0.00     0.084 H 
ATOM     65  C32 non d ame     -12.180   9.116  71.782  0.00  0.00    -0.083 A 
ATOM     66  H50 non d ame     -14.003   7.957  71.695  0.00  0.00     0.083 H 
ATOM     67  C33 non d ame     -10.828   9.151  71.468  0.00  0.00    -0.082 A 
ATOM     68  H51 non d ame     -12.641   9.967  72.283  0.00  0.00     0.083 H 
ATOM     69  C34 non d ame     -10.224   8.069  70.829  0.00  0.00    -0.075 A 
ATOM     70  H52 non d ame     -10.238  10.031  71.724  0.00  0.00     0.083 H 
ATOM     71  H53 non d ame      -9.161   8.104  70.587  0.00  0.00     0.084 H 
ENDBRANCH  58  61
ENDBRANCH  57  58
ENDBRANCH  55  57
ENDBRANCH  52  55
ENDBRANCH  49  52
ENDBRANCH  47  49
BRANCH  47  72
ATOM     72  C24 non d ame      -7.361   4.748  65.834  0.00  0.00    -0.039 C 
ATOM     73  H35 non d ame      -7.901   4.879  66.772  0.00  0.00     0.036 H 
ATOM     74  H36 non d ame      -7.003   3.759  65.546  0.00  0.00     0.036 H 
BRANCH  72  75
ATOM     75  C25 non d ame      -6.085   5.716  65.885  0.00  0.00    -0.001 C 
ATOM     76  C26 non d ame      -4.777   4.953  65.244  0.00  0.00    -0.035 C 
ATOM     77  C27 non d ame      -3.747   5.042  66.119  0.00  0.00     0.085 C 
ATOM     78  H38 non d ame      -4.964   3.882  65.179  0.00  0.00     0.036 H 
ATOM     79  H39 non d ame      -4.417   5.498  64.370  0.00  0.00     0.036 H 
ATOM     80  N5  non d ame      -4.323   5.509  67.433  0.00  0.00    -0.049 N 
ATOM     81  H40 non d ame      -3.375   4.024  66.236  0.00  0.00     0.075 H 
ATOM     82  H41 non d ame      -3.094   5.819  65.722  0.00  0.00     0.075 H 
ATOM     83  C28 non d ame      -5.805   6.057  67.099  0.00  0.00     0.193 C 
ATOM     84  H42 non d ame      -4.408   4.688  68.016  0.00  0.00     0.280 HD
ATOM     85  H43 non d ame      -3.754   6.286  67.736  0.00  0.00     0.280 HD
ATOM     86  H44 non d ame      -6.003   7.128  67.056  0.00  0.00     0.129 H 
ATOM     87  H37 non d ame      -6.309   6.715  65.512  0.00  0.00     0.046 H 
BRANCH  83  88
ATOM     88  O6  non d ame      -6.747   5.533  68.037  0.00  0.00    -0.369 OA
ATOM     89  H45 non d ame      -7.307   6.242  68.358  0.00  0.00     0.212 HD
ENDBRANCH  83  88
ENDBRANCH  72  75
ENDBRANCH  47  72
ENDBRANCH  45  47
ENDBRANCH   1  43
BRANCH   1  90
ATOM     90  C16 non d ame      -6.750   9.131  62.359  0.00  0.00    -0.035 C 
ATOM     91  H21 non d ame      -6.504   8.319  61.675  0.00  0.00     0.037 H 
ATOM     92  H22 non d ame      -6.896  10.140  61.975  0.00  0.00     0.037 H 
BRANCH  90  93
ATOM     93  C17 non d ame      -5.576   9.214  63.385  0.00  0.00    -0.059 C 
ATOM     94  H23 non d ame      -6.002   9.103  64.383  0.00  0.00     0.038 H 
BRANCH  93  95
ATOM     95  C18 non d ame      -4.533   8.070  63.182  0.00  0.00    -0.073 C 
ATOM     96  H24 non d ame      -4.049   7.846  64.134  0.00  0.00     0.028 H 
ATOM     97  H25 non d ame      -5.039   7.177  62.815  0.00  0.00     0.028 H 
ATOM     98  H26 non d ame      -3.783   8.385  62.458  0.00  0.00     0.028 H 
ENDBRANCH  93  95
BRANCH  93  99
ATOM     99  C19 non d ame      -4.899  10.586  63.331  0.00  0.00    -0.073 C 
ATOM    100  H27 non d ame      -5.569  11.303  62.858  0.00  0.00     0.028 H 
ATOM    101  H28 non d ame      -4.666  10.917  64.343  0.00  0.00     0.028 H 
ATOM    102  H29 non d ame      -3.979  10.513  62.752  0.00  0.00     0.028 H 
ENDBRANCH  93  99
ENDBRANCH  90  93
ENDBRANCH   1  90
TORSDOF 26
ENDMDL
