@<TRIPOS>MOLECULE
6lu7_ligand.pdbqt
 101 103 0 0 0
SMALL
GASTEIGER

@<TRIPOS>ATOM
      1 CA        -12.1240   14.0960   69.7160 C.3     4  LEU44       0.0996
      2 CB        -11.8250   15.1550   70.7650 C.3     4  LEU44      -0.0236
      3 CG        -13.0010   15.3970   71.7640 C.3     4  LEU44      -0.0446
      4 CD1       -13.8340   14.1000   72.0190 C.3     4  LEU44      -0.0626
      5 CD2       -12.4870   15.9820   73.0820 C.3     4  LEU44      -0.0626
      6 C         -11.5820   14.5610   68.3340 C.2     4  LEU44       0.2336
      7 N5        -12.5240   14.9870   67.2600 N.am    5  PJE55      -0.3109
      8 O         -10.4110   14.5700   68.1310 O.2     4  LEU44      -0.2738
      9 C19       -11.9930   15.4250   65.9510 C.3     5  PJE55       0.0240
     10 C25       -12.4560   14.4640   64.8580 C.3     5  PJE55      -0.0280
     11 C26       -11.8270   13.0030   65.0480 C.3     5  PJE55       0.0014
     12 C29       -12.3830   12.1480   64.2560 C.3     5  PJE55       0.1091
     13 O8        -13.4400   12.7300   63.4910 O.3     5  PJE55      -0.3771
     14 C27       -10.2150   13.0410   64.7250 C.3     5  PJE55      -0.0339
     15 C28        -9.9250   12.0610   63.8360 C.3     5  PJE55      -0.0015
     16 N6        -11.2380   11.5710   63.2750 N.3     5  PJE55      -0.2916
     17 C20       -12.4990   16.8170   65.6470 C.3     5  PJE55      -0.0244
     18 C21       -11.3650   17.8020   65.2890 C.3     5  PJE55       0.0466
     19 C22       -10.1670   17.7640   66.2780 C.2     5  PJE55       0.3074
     20 O7        -10.3540   17.7310   67.4510 O.2     5  PJE55      -0.2508
     21 O          -8.8400   17.7820   65.7660 O.3     6  01066      -0.4599
     22 C          -7.8300   17.5820   66.7590 C.3     6  01066       0.1175
     23 C6         -7.0820   18.9270   66.9590 C.ar    6  01066      -0.0103
     24 C5         -7.7600   20.1340   66.7780 C.ar    6  01066      -0.0554
     25 C4         -7.0850   21.3390   66.9610 C.ar    6  01066      -0.0614
     26 C3         -5.7440   21.3470   67.3200 C.ar    6  01066      -0.0617
     27 C2         -5.0670   20.1380   67.5020 C.ar    6  01066      -0.0614
     28 C1         -5.7390   18.9300   67.3220 C.ar    6  01066      -0.0554
     29 N         -11.4520   12.8590   70.0850 N.am    4  LEU44      -0.3025
     30 C         -11.6630   11.6060   69.2730 C.2     3  VAL33       0.2342
     31 O         -12.3810   11.6170   68.3280 O.2     3  VAL33      -0.2738
     32 CA        -10.9550   10.3360   69.6660 C.3     3  VAL33       0.1017
     33 CB        -10.0040    9.8950   68.5150 C.3     3  VAL33      -0.0197
     34 CG2        -9.1160    8.6870   68.9550 C.3     3  VAL33      -0.0605
     35 CG1        -9.1300   11.0860   68.0120 C.3     3  VAL33      -0.0605
     36 N         -11.9430    9.2810   69.9110 N.am    3  VAL33      -0.3022
     37 C         -12.1150    8.7500   71.2410 C.2     2  ALA22       0.2337
     38 O         -11.4660    9.1590   72.1250 O.2     2  ALA22      -0.2738
     39 CA        -13.1660    7.6250   71.4950 C.3     2  ALA22       0.0969
     40 CB        -14.3970    8.2180   72.1320 C.3     2  ALA22      -0.0381
     41 N         -12.5830    6.6250   72.3740 N.am    2  ALA22      -0.2990
     42 C41       -11.4750    5.7980   71.8910 C.2     1  02J11       0.2663
     43 O42       -11.0620    5.9430   70.7930 O.2     1  02J11      -0.2684
     44 C3        -10.8480    4.7380   72.8100 C.ar    1  02J11       0.1678
     45 N2        -10.5850    4.8610   74.1140 N.ar    1  02J11      -0.0734
     46 O1        -10.0480    3.7550   74.5750 O.2     1  02J11      -0.3592
     47 C5         -9.9240    2.8570   73.6420 C.ar    1  02J11       0.1350
     48 C6         -9.3450    1.4580   73.8060 C.3     1  02J11      -0.0037
     49 C4        -10.4250    3.4200   72.4470 C.ar    1  02J11       0.0125
     50 H         -13.1814   13.9432   69.6581 H       4  LEU44       0.0594
     51 H         -11.6119   16.0762   70.2642 H       4  LEU44       0.0290
     52 H         -10.9941   14.8015   71.3390 H       4  LEU44       0.0290
     53 H         -13.6574   16.1094   71.3096 H       4  LEU44       0.0296
     54 H         -13.2104   13.3595   72.4747 H       4  LEU44       0.0232
     55 H         -14.2080   13.7276   71.0882 H       4  LEU44       0.0232
     56 H         -14.6540   14.3247   72.6686 H       4  LEU44       0.0232
     57 H         -11.8280   15.2811   73.5503 H       4  LEU44       0.0232
     58 H         -13.3145   16.1817   73.7303 H       4  LEU44       0.0232
     59 H         -11.9593   16.8921   72.8865 H       4  LEU44       0.0232
     60 H         -13.4951   14.9768   67.4214 H       5  PJE55       0.1490
     61 H         -10.9236   15.4301   65.9849 H       5  PJE55       0.0498
     62 H         -13.5229   14.3892   64.8912 H       5  PJE55       0.0287
     63 H         -12.1277   14.8484   63.9150 H       5  PJE55       0.0287
     64 H         -11.9984   12.7050   66.0613 H       5  PJE55       0.0340
     65 H         -12.8226   11.3653   64.8383 H       5  PJE55       0.0767
     66 H         -13.0857   13.4488   62.9444 H       5  PJE55       0.2114
     67 H          -9.9537   13.9920   64.3100 H       5  PJE55       0.0281
     68 H          -9.6597   12.8897   65.6270 H       5  PJE55       0.0281
     69 H          -9.3111   12.4481   63.0497 H       5  PJE55       0.0425
     70 H          -9.3901   11.2635   64.3080 H       5  PJE55       0.0425
     71 H         -11.2607   10.5513   63.2648 H       5  PJE55       0.1243
     72 H         -13.1768   16.7614   64.8209 H       5  PJE55       0.0288
     73 H         -12.9781   17.1852   66.5300 H       5  PJE55       0.0288
     74 H         -11.7678   18.7933   65.2847 H       5  PJE55       0.0378
     75 H         -10.9883   17.5094   64.3312 H       5  PJE55       0.0378
     76 H          -7.1431   16.8295   66.4321 H       6  01066       0.0749
     77 H          -8.2716   17.2615   67.6794 H       6  01066       0.0749
     78 H          -8.7566   20.1336   66.5099 H       6  01066       0.0621
     79 H          -7.5854   22.2318   66.8288 H       6  01066       0.0618
     80 H          -5.2487   22.2427   67.4520 H       6  01066       0.0618
     81 H          -4.0703   20.1395   67.7695 H       6  01066       0.0618
     82 H          -5.2398   18.0371   67.4581 H       6  01066       0.0621
     83 H         -10.8566   12.8401   70.8688 H       4  LEU44       0.1495
     84 H         -10.3856   10.5066   70.5557 H       3  VAL33       0.0597
     85 H         -10.6116    9.5741   67.6948 H       3  VAL33       0.0318
     86 H          -8.4962    8.9805   69.7764 H       3  VAL33       0.0233
     87 H          -8.5004    8.3798   68.1356 H       3  VAL33       0.0233
     88 H          -9.7433    7.8736   69.2544 H       3  VAL33       0.0233
     89 H          -8.5074   11.4334   68.8098 H       3  VAL33       0.0233
     90 H          -9.7660   11.8814   67.6837 H       3  VAL33       0.0233
     91 H          -8.5174   10.7599   67.1976 H       3  VAL33       0.0233
     92 H         -12.4888    8.9352   69.1682 H       3  VAL33       0.1495
     93 H         -13.4428    7.1679   70.5680 H       2  ALA22       0.0592
     94 H         -14.1315    8.6783   73.0607 H       2  ALA22       0.0252
     95 H         -15.1145    7.4444   72.3096 H       2  ALA22       0.0252
     96 H         -14.8187    8.9522   71.4778 H       2  ALA22       0.0252
     97 H         -12.9303    6.5045   73.2873 H       2  ALA22       0.1498
     98 H          -9.3725    0.9481   72.8657 H       1  02J11       0.0309
     99 H          -9.9234    0.9144   74.5235 H       1  02J11       0.0309
    100 H          -8.3322    1.5285   74.1440 H       1  02J11       0.0309
    101 H         -10.4750    2.9776   71.5160 H       1  02J11       0.0676
@<TRIPOS>BOND
     1    16    15    1
     2    16    12    1
     3    13    12    1
     4    15    14    1
     5    12    11    1
     6    14    11    1
     7    10    11    1
     8    10     9    1
     9    18    17    1
    10    18    19    1
    11    17     9    1
    12    21    19    1
    13    21    22    1
    14     9     7    1
    15    19    20    2
    16    22    23    1
    17    24    23   ar
    18    24    25   ar
    19    23    28   ar
    20    25    26   ar
    21     7     6   am
    22    26    27   ar
    23    28    27   ar
    24    35    33    1
    25     8     6    2
    26    31    30    2
    27     6     1    1
    28    33    34    1
    29    33    32    1
    30    30    32    1
    31    30    29   am
    32    32    36    1
    33     1    29    1
    34     1     2    1
    35    36    37   am
    36     2     3    1
    37    43    42    2
    38    37    39    1
    39    37    38    2
    40    39    40    1
    41    39    41    1
    42     3     4    1
    43     3     5    1
    44    42    41   am
    45    42    44    1
    46    49    44   ar
    47    49    47   ar
    48    44    45   ar
    49    47    48    1
    50    47    46   ar
    51    45    46   ar
    52     1    50    1
    53     2    51    1
    54     2    52    1
    55     3    53    1
    56     4    54    1
    57     4    55    1
    58     4    56    1
    59     5    57    1
    60     5    58    1
    61     5    59    1
    62     7    60    1
    63     9    61    1
    64    10    62    1
    65    10    63    1
    66    11    64    1
    67    12    65    1
    68    13    66    1
    69    14    67    1
    70    14    68    1
    71    15    69    1
    72    15    70    1
    73    16    71    1
    74    17    72    1
    75    17    73    1
    76    18    74    1
    77    18    75    1
    78    22    76    1
    79    22    77    1
    80    24    78    1
    81    25    79    1
    82    26    80    1
    83    27    81    1
    84    28    82    1
    85    29    83    1
    86    32    84    1
    87    33    85    1
    88    34    86    1
    89    34    87    1
    90    34    88    1
    91    35    89    1
    92    35    90    1
    93    35    91    1
    94    36    92    1
    95    39    93    1
    96    40    94    1
    97    40    95    1
    98    40    96    1
    99    41    97    1
   100    48    98    1
   101    48    99    1
   102    48   100    1
   103    49   101    1
