@<TRIPOS>MOLECULE
Ligand_B
102 104 1
SMALL
USER_CHARGES
@<TRIPOS>ATOM
1	C1   -32.6220     3.4200    21.7929	C.2	1	noname	0.0659
2	C2   -33.1230     2.8570    20.5979	C.2	1	noname	0.0996
3	C3   -33.7020     1.4580    20.4339	C.3	1	noname	0.0590
4	O1   -32.9990     3.7550    19.6649	O.3	1	noname	-0.3066
5	N1   -32.4620     4.8610    20.1259	N.2	1	noname	-0.1225
6	C4   -32.1990     4.7380    21.4299	C.2	1	noname	0.1035
7	C5   -31.5720     5.7980    22.3489	C.2	1	noname	0.0574
8	O2   -31.9850     5.9430    23.4469	O.2	1	noname	-0.2817
9	N2   -30.4640     6.6250    21.8659	N.3	1	noname	-0.0581
10	C6   -29.8810     7.6250    22.7449	C.3	1	noname	0.0853
11	C7   -30.9320     8.7500    22.9989	C.2	1	noname	0.0492
12	O3   -31.5810     9.1590    22.1149	O.2	1	noname	-0.2901
13	C8   -28.6500     8.2180    22.1079	C.3	1	noname	-0.0408
14	N3   -31.1040     9.2810    24.3289	N.3	1	noname	-0.0663
15	C9   -32.0920    10.3360    24.5739	C.3	1	noname	0.0901
16	C10   -31.3840    11.6060    24.9669	C.2	1	noname	0.0494
17	O4   -30.6660    11.6170    25.9119	O.2	1	noname	-0.2899
18	C11   -33.0430     9.8950    25.7249	C.3	1	noname	-0.0227
19	C12   -33.9170    11.0860    26.2279	C.3	1	noname	-0.0608
20	C13   -33.9310     8.6870    25.2849	C.3	1	noname	-0.0608
21	N4   -31.5950    12.8590    24.1549	N.3	1	noname	-0.0663
22	C14   -30.9230    14.0960    24.5239	C.3	1	noname	0.0880
23	C15   -31.4650    14.5610    25.9059	C.2	1	noname	0.0469
24	O5   -32.6360    14.5700    26.1089	O.2	1	noname	-0.2906
25	C16   -31.2220    15.1550    23.4749	C.3	1	noname	-0.0265
26	C17   -30.0460    15.3970    22.4759	C.3	1	noname	-0.0451
27	C18   -29.2130    14.1000    22.2209	C.3	1	noname	-0.0627
28	C19   -30.5600    15.9820    21.1579	C.3	1	noname	-0.0627
29	C20   -31.0540    15.4250    28.2889	C.3	1	noname	0.0152
30	C21   -30.5480    16.8170    28.5929	C.3	1	noname	-0.0279
31	C22   -31.6820    17.8020    28.9509	C.3	1	noname	0.0352
32	C23   -32.8800    17.7640    27.9619	C.2	1	noname	0.1413
33	C24   -30.5910    14.4640    29.3819	C.3	1	noname	-0.0251
34	C25   -31.2200    13.0030    29.1919	C.3	1	noname	0.0445
35	C26   -32.8320    13.0410    29.5149	C.3	1	noname	0.0075
36	C27   -33.1220    12.0610    30.4039	C.3	1	noname	-0.0098
37	N5   -31.8090    11.5710    30.9649	N.4	1	noname	0.0196
38	C28   -30.6640    12.1480    29.9839	C.3	1	noname	0.1069
39	O6   -29.6070    12.7300    30.7489	O.3	1	noname	-0.3459
40	N6   -30.5230    14.9870    26.9799	N.3	1	noname	-0.0725
41	O7   -32.6930    17.7310    26.7889	O.2	1	noname	-0.2538
42	C29   -35.2170    17.5820    27.4809	C.3	1	noname	0.0815
43	O8   -34.2070    17.7820    28.4739	O.3	1	noname	-0.2037
44	C30   -37.3080    18.9300    26.9179	C.2	1	noname	-0.0497
45	C31   -37.9800    20.1380    26.7379	C.2	1	noname	-0.0585
46	C32   -37.3030    21.3470    26.9199	C.2	1	noname	-0.0611
47	C33   -35.9620    21.3390    27.2789	C.2	1	noname	-0.0585
48	C34   -35.2870    20.1340    27.4619	C.2	1	noname	-0.0497
49	C35   -35.9650    18.9270    27.2809	C.2	1	noname	-0.0434
50	H1   -32.5729     2.9451    22.7728	H	1	noname	0.0672
51	H2   -33.8825     1.0220    21.4165	H	1	noname	0.0301
52	H3   -34.6413     1.5157    19.8839	H	1	noname	0.0301
53	H4   -32.9966     0.8350    19.8839	H	1	noname	0.0301
54	H5   -30.1033     6.5061    20.9300	H	1	noname	0.1322
55	H6   -29.5895     7.1056    23.6578	H	1	noname	0.0563
56	H7   -27.9621     8.5494    22.8858	H	1	noname	0.0251
57	H8   -28.1627     7.4649    21.4887	H	1	noname	0.0251
58	H9   -28.9352     9.0685    21.4887	H	1	noname	0.0251
59	H10   -30.5377     8.9173    25.0819	H	1	noname	0.1319
60	H11   -32.6282    10.4987    23.6390	H	1	noname	0.0569
61	H12   -32.4212     9.5699    26.5591	H	1	noname	0.0318
62	H13   -33.9245    11.0962    27.3178	H	1	noname	0.0234
63	H14   -33.5010    12.0234    25.8586	H	1	noname	0.0234
64	H15   -34.9360    10.9703    25.8586	H	1	noname	0.0234
65	H16   -34.3089     8.1729    26.1687	H	1	noname	0.0234
66	H17   -34.7689     9.0498    24.6895	H	1	noname	0.0234
67	H18   -33.3347     7.9956    24.6895	H	1	noname	0.0234
68	H19   -32.1998    12.8700    23.3460	H	1	noname	0.1318
69	H20   -29.8524    13.8929    24.5494	H	1	noname	0.0566
70	H21   -32.0475    14.7539    22.8869	H	1	noname	0.0290
71	H22   -31.3496    16.0840    24.0306	H	1	noname	0.0290
72	H23   -29.3811    16.1371    22.9212	H	1	noname	0.0298
73	H24   -28.9287    13.6573    23.1755	H	1	noname	0.0233
74	H25   -29.8134    13.3880    21.6547	H	1	noname	0.0233
75	H26   -28.3158    14.3499    21.6547	H	1	noname	0.0233
76	H27   -30.8247    15.1712    20.4792	H	1	noname	0.0233
77	H28   -31.4398    16.5957    21.3514	H	1	noname	0.0233
78	H29   -29.7815    16.5957    20.7047	H	1	noname	0.0233
79	H30   -32.1421    15.4301    28.2251	H	1	noname	0.0469
80	H31   -29.9321    16.7175    29.4867	H	1	noname	0.0288
81	H32   -30.1066    17.1789    27.6643	H	1	noname	0.0288
82	H33   -32.0743    17.4649    29.9104	H	1	noname	0.0373
83	H34   -31.2485    18.7978    28.8588	H	1	noname	0.0373
84	H35   -29.5134    14.3701    29.2478	H	1	noname	0.0289
85	H36   -30.9914    14.8680    30.3117	H	1	noname	0.0289
86	H37   -30.9131    12.5402    28.2540	H	1	noname	0.0404
87	H38   -33.0841    13.9554    30.0519	H	1	noname	0.0339
88	H39   -33.3977    12.7563    28.6278	H	1	noname	0.0339
89	H40   -33.6886    12.5467    31.1984	H	1	noname	0.0941
90	H41   -33.5784    11.2626    29.8188	H	1	noname	0.0941
91	H42   -31.7053    12.0054    31.8708	H	1	noname	0.2589
92	H43   -31.8225    10.5642    30.8863	H	1	noname	0.2589
93	H44   -30.1754    11.4956    29.2602	H	1	noname	0.1330
94	H45   -29.7948    12.6266    31.6847	H	1	noname	0.2175
95	H46   -29.5256    14.9789    26.8208	H	1	noname	0.1313
96	H47   -34.6834    17.3443    26.5607	H	1	noname	0.0624
97	H48   -35.9132    16.8608    27.9090	H	1	noname	0.0624
98	H49   -37.8337    17.9860    26.7745	H	1	noname	0.0626
99	H50   -39.0328    20.1372    26.4554	H	1	noname	0.0622
100	H51   -37.8209    22.2961    26.7819	H	1	noname	0.0622
101	H52   -35.4364    22.2837    27.4178	H	1	noname	0.0622
102	H53   -34.2344    20.1356    27.7451	H	1	noname	0.0626
@<TRIPOS>BOND
1	1	2	2
2	1	6	1
3	2	3	1
4	2	4	1
5	4	5	1
6	5	6	2
7	6	7	1
8	7	8	2
9	7	9	1
10	9	10	1
11	10	11	1
12	10	13	1
13	11	12	2
14	11	14	1
15	14	15	1
16	15	16	1
17	15	18	1
18	16	17	2
19	16	21	1
20	18	19	1
21	18	20	1
22	21	22	1
23	22	23	1
24	22	25	1
25	23	24	2
26	23	40	1
27	25	26	1
28	26	27	1
29	26	28	1
30	29	30	1
31	29	33	1
32	29	40	1
33	30	31	1
34	31	32	1
35	32	41	2
36	32	43	1
37	33	34	1
38	34	35	1
39	34	38	1
40	35	36	1
41	36	37	1
42	37	38	1
43	38	39	1
44	42	43	1
45	42	49	1
46	44	45	2
47	44	49	1
48	45	46	1
49	46	47	2
50	47	48	1
51	48	49	2
52	1	50	1
53	3	51	1
54	3	52	1
55	3	53	1
56	9	54	1
57	10	55	1
58	13	56	1
59	13	57	1
60	13	58	1
61	14	59	1
62	15	60	1
63	18	61	1
64	19	62	1
65	19	63	1
66	19	64	1
67	20	65	1
68	20	66	1
69	20	67	1
70	21	68	1
71	22	69	1
72	25	70	1
73	25	71	1
74	26	72	1
75	27	73	1
76	27	74	1
77	27	75	1
78	28	76	1
79	28	77	1
80	28	78	1
81	29	79	1
82	30	80	1
83	30	81	1
84	31	82	1
85	31	83	1
86	33	84	1
87	33	85	1
88	34	86	1
89	35	87	1
90	35	88	1
91	36	89	1
92	36	90	1
93	37	91	1
94	37	92	1
95	38	93	1
96	39	94	1
97	40	95	1
98	42	96	1
99	42	97	1
100	44	98	1
101	45	99	1
102	46	100	1
103	47	101	1
104	48	102	1
@<TRIPOS>SUBSTRUCTURE
1	noname	1
CC(C)C[C@H](NC(=O)[C@@H](NC(=O)[C@H](C)NC(=O)C1=NOC(C)=C1)C(C)C)C(=O)N[C@H](CCC(=O)OCC1=CC=CC=C1)C[C@@H]1CCN[C@@H]1O.CC(C)C[C@H](NC(=O)[C@@H](NC(=O)[C@H](C)NC(=O)C1=NOC(C)=C1)C(C)C)C(=[OH+])N[C@H](CCC(=O)OCC1=CC=CC=C1)C[C@@H]1CCN[C@@H]1O.CC(C)C[C@H](NC(=O)[C@@H](NC(=O)[C@H](C)NC(=O)C1=[NH+]OC(C)=C1)C(C)C)C(=O)N[C@H](CCC(=O)OCC1=CC=CC=C1)C[C@@H]1CCN[C@@H]1O.CC(C)C[C@H](NC(=O)[C@@H](NC(=O)[C@H](C)NC(=O)C1=NOC(C)=C1)C(C)C)C(=O)N[C@H](CCC(=O)OCC1=CC=CC=C1)C[C@@H]1CC[NH2+][C@@H]1O.CC(C)C[C@H]([N-]C(=O)[C@@H](NC(=O)[C@H](C)NC(=O)C1=NOC(C)=C1)C(C)C)C(=O)N[C@H](CCC(=O)OCC1=CC=CC=C1)C[C@@H]1CCN[C@@H]1O.CC(C)C[C@H](NC(=O)[C@@H]([N-]C(=O)[C@H](C)NC(=O)C1=NOC(C)=C1)C(C)C)C(=O)N[C@H](CCC(=O)OCC1=CC=CC=C1)C[C@@H]1CCN[C@@H]1O.CC(C)C[C@H](NC(=O)[C@@H](NC(=O)[C@H](C)[N-]C(=O)C1=NOC(C)=C1)C(C)C)C(=O)N[C@H](CCC(=O)OCC1=CC=CC=C1)C[C@@H]1CCN[C@@H]1O.CC(C)C[C@H](NC(=O)[C@@H](NC(=O)[C@H](C)NC(=O)C1=NOC(C)=C1)C(C)C)C(=O)N[C@H](CCC(=O)OCC1=CC=CC=C1)C[C@@H]1CCN[C@@H]1[O-].CC(C)C[C@H](NC(=O)[C@@H](NC(=O)[C@H](C)NC(=O)C1=NOC(C)=C1)C(C)C)C(=O)[N-][C@H](CCC(=O)OCC1=CC=CC=C1)C[C@@H]1CCN[C@@H]1O.CC(C)C[C@H](NC(=O)[C@@H](NC(=O)[C@H](C)NC(=O)C1=[NH+]OC(C)=C1)C(C)C)C(=[OH+])N[C@H](CCC(=O)OCC1=CC=CC=C1)C[C@@H]1CCN[C@@H]1O.CC(C)C[C@H](NC(=O)[C@@H](NC(=O)[C@H](C)NC(=O)C1=NOC(C)=C1)C(C)C)C(=[OH+])N[C@H](CCC(=O)OCC1=CC=CC=C1)C[C@@H]1CC[NH2+][C@@H]1O.CC(C)C[C@H]([N-]C(=O)[C@@H](NC(=O)[C@H](C)NC(=O)C1=NOC(C)=C1)C(C)C)C(=[OH+])N[C@H](CCC(=O)OCC1=CC=CC=C1)C[C@@H]1CCN[C@@H]1O.CC(C)C[C@H](NC(=O)[C@@H]([N-]C(=O)[C@H](C)NC(=O)C1=NOC(C)=C1)C(C)C)C(=[OH+])N[C@H](CCC(=O)OCC1=CC=CC=C1)C[C@@H]1CCN[C@@H]1O.CC(C)C[C@H](NC(=O)[C@@H](NC(=O)[C@H](C)[N-]C(=O)C1=NOC(C)=C1)C(C)C)C(=[OH+])N[C@H](CCC(=O)OCC1=CC=CC=C1)C[C@@H]1CCN[C@@H]1O.CC(C)C[C@H](NC(=O)[C@@H](NC(=O)[C@H](C)NC(=O)C1=NOC(C)=C1)C(C)C)C(=[OH+])N[C@H](CCC(=O)OCC1=CC=CC=C1)C[C@@H]1CCN[C@@H]1[O-].CC(C)C[C@H](NC(=O)[C@@H](NC(=O)[C@H](C)NC(=O)C1=NOC(C)=C1)C(C)C)C(=[OH+])[N-][C@H](CCC(=O)OCC1=CC=CC=C1)C[C@@H]1CCN[C@@H]1O.CC(C)C[C@H](NC(=O)[C@@H](NC(=O)[C@H](C)NC(=O)C1=[NH+]OC(C)=C1)C(C)C)C(=O)N[C@H](CCC(=O)OCC1=CC=CC=C1)C[C@@H]1CC[NH2+][C@@H]1O.CC(C)C[C@H]([N-]C(=O)[C@@H](NC(=O)[C@H](C)NC(=O)C1=[NH+]OC(C)=C1)C(C)C)C(=O)N[C@H](CCC(=O)OCC1=CC=CC=C1)C[C@@H]1CCN[C@@H]1O.CC(C)C[C@H](NC(=O)[C@@H]([N-]C(=O)[C@H](C)NC(=O)C1=[NH+]OC(C)=C1)C(C)C)C(=O)N[C@H](CCC(=O)OCC1=CC=CC=C1)C[C@@H]1CCN[C@@H]1O.CC(C)C[C@H](NC(=O)[C@@H](NC(=O)[C@H](C)[N-]C(=O)C1=[NH+]OC(C)=C1)C(C)C)C(=O)N[C@H](CCC(=O)OCC1=CC=CC=C1)C[C@@H]1CCN[C@@H]1O.CC(C)C[C@H](NC(=O)[C@@H](NC(=O)[C@H](C)NC(=O)C1=[NH+]OC(C)=C1)C(C)C)C(=O)N[C@H](CCC(=O)OCC1=CC=CC=C1)C[C@@H]1CCN[C@@H]1[O-].CC(C)C[C@H](NC(=O)[C@@H](NC(=O)[C@H](C)NC(=O)C1=[NH+]OC(C)=C1)C(C)C)C(=O)[N-][C@H](CCC(=O)OCC1=CC=CC=C1)C[C@@H]1CCN[C@@H]1O.CC(C)C[C@H]([N-]C(=O)[C@@H](NC(=O)[C@H](C)NC(=O)C1=NOC(C)=C1)C(C)C)C(=O)N[C@H](CCC(=O)OCC1=CC=CC=C1)C[C@@H]1CC[NH2+][C@@H]1O.CC(C)C[C@H](NC(=O)[C@@H]([N-]C(=O)[C@H](C)NC(=O)C1=NOC(C)=C1)C(C)C)C(=O)N[C@H](CCC(=O)OCC1=CC=CC=C1)C[C@@H]1CC[NH2+][C@@H]1O.CC(C)C[C@H](NC(=O)[C@@H](NC(=O)[C@H](C)[N-]C(=O)C1=NOC(C)=C1)C(C)C)C(=O)N[C@H](CCC(=O)OCC1=CC=CC=C1)C[C@@H]1CC[NH2+][C@@H]1O.CC(C)C[C@H](NC(=O)[C@@H](NC(=O)[C@H](C)NC(=O)C1=NOC(C)=C1)C(C)C)C(=O)N[C@H](CCC(=O)OCC1=CC=CC=C1)C[C@@H]1CC[NH2+][C@@H]1[O-].CC(C)C[C@H](NC(=O)[C@@H](NC(=O)[C@H](C)NC(=O)C1=NOC(C)=C1)C(C)C)C(=O)[N-][C@H](CCC(=O)OCC1=CC=CC=C1)C[C@@H]1CC[NH2+][C@@H]1O.CC(C)C[C@H]([N-]C(=O)[C@@H]([N-]C(=O)[C@H](C)NC(=O)C1=NOC(C)=C1)C(C)C)C(=O)N[C@H](CCC(=O)OCC1=CC=CC=C1)C[C@@H]1CCN[C@@H]1O.CC(C)C[C@H]([N-]C(=O)[C@@H](NC(=O)[C@H](C)[N-]C(=O)C1=NOC(C)=C1)C(C)C)C(=O)N[C@H](CCC(=O)OCC1=CC=CC=C1)C[C@@H]1CCN[C@@H]1O.CC(C)C[C@H]([N-]C(=O)[C@@H](NC(=O)[C@H](C)NC(=O)C1=NOC(C)=C1)C(C)C)C(=O)N[C@H](CCC(=O)OCC1=CC=CC=C1)C[C@@H]1CCN[C@@H]1[O-].CC(C)C[C@H]([N-]C(=O)[C@@H](NC(=O)[C@H](C)NC(=O)C1=NOC(C)=C1)C(C)C)C(=O)[N-][C@H](CCC(=O)OCC1=CC=CC=C1)C[C@@H]1CCN[C@@H]1O.CC(C)C[C@H](NC(=O)[C@@H]([N-]C(=O)[C@H](C)[N-]C(=O)C1=NOC(C)=C1)C(C)C)C(=O)N[C@H](CCC(=O)OCC1=CC=CC=C1)C[C@@H]1CCN[C@@H]1O.CC(C)C[C@H](NC(=O)[C@@H]([N-]C(=O)[C@H](C)NC(=O)C1=NOC(C)=C1)C(C)C)C(=O)N[C@H](CCC(=O)OCC1=CC=CC=C1)C[C@@H]1CCN[C@@H]1[O-].CC(C)C[C@H](NC(=O)[C@@H]([N-]C(=O)[C@H](C)NC(=O)C1=NOC(C)=C1)C(C)C)C(=O)[N-][C@H](CCC(=O)OCC1=CC=CC=C1)C[C@@H]1CCN[C@@H]1O.CC(C)C[C@H](NC(=O)[C@@H](NC(=O)[C@H](C)[N-]C(=O)C1=NOC(C)=C1)C(C)C)C(=O)N[C@H](CCC(=O)OCC1=CC=CC=C1)C[C@@H]1CCN[C@@H]1[O-].CC(C)C[C@H](NC(=O)[C@@H](NC(=O)[C@H](C)[N-]C(=O)C1=NOC(C)=C1)C(C)C)C(=O)[N-][C@H](CCC(=O)OCC1=CC=CC=C1)C[C@@H]1CCN[C@@H]1O.CC(C)C[C@H](NC(=O)[C@@H](NC(=O)[C@H](C)NC(=O)C1=NOC(C)=C1)C(C)C)C(=O)[N-][C@H](CCC(=O)OCC1=CC=CC=C1)C[C@@H]1CCN[C@@H]1[O-].CC(C)C[C@H](NC(=O)[C@@H](NC(=O)[C@H](C)NC(=O)C1=[NH+]OC(C)=C1)C(C)C)C(=[OH+])N[C@H](CCC(=O)OCC1=CC=CC=C1)C[C@@H]1CC[NH2+][C@@H]1O.CC(C)C[C@H]([N-]C(=O)[C@@H](NC(=O)[C@H](C)NC(=O)C1=[NH+]OC(C)=C1)C(C)C)C(=[OH+])N[C@H](CCC(=O)OCC1=CC=CC=C1)C[C@@H]1CCN[C@@H]1O.CC(C)C[C@H](NC(=O)[C@@H]([N-]C(=O)[C@H](C)NC(=O)C1=[NH+]OC(C)=C1)C(C)C)C(=[OH+])N[C@H](CCC(=O)OCC1=CC=CC=C1)C[C@@H]1CCN[C@@H]1O.CC(C)C[C@H](NC(=O)[C@@H](NC(=O)[C@H](C)[N-]C(=O)C1=[NH+]OC(C)=C1)C(C)C)C(=[OH+])N[C@H](CCC(=O)OCC1=CC=CC=C1)C[C@@H]1CCN[C@@H]1O.CC(C)C[C@H](NC(=O)[C@@H](NC(=O)[C@H](C)NC(=O)C1=[NH+]OC(C)=C1)C(C)C)C(=[OH+])N[C@H](CCC(=O)OCC1=CC=CC=C1)C[C@@H]1CCN[C@@H]1[O-].CC(C)C[C@H](NC(=O)[C@@H](NC(=O)[C@H](C)NC(=O)C1=[NH+]OC(C)=C1)C(C)C)C(=[OH+])[N-][C@H](CCC(=O)OCC1=CC=CC=C1)C[C@@H]1CCN[C@@H]1O.CC(C)C[C@H]([N-]C(=O)[C@@H](NC(=O)[C@H](C)NC(=O)C1=NOC(C)=C1)C(C)C)C(=[OH+])N[C@H](CCC(=O)OCC1=CC=CC=C1)C[C@@H]1CC[NH2+][C@@H]1O.CC(C)C[C@H](NC(=O)[C@@H]([N-]C(=O)[C@H](C)NC(=O)C1=NOC(C)=C1)C(C)C)C(=[OH+])N[C@H](CCC(=O)OCC1=CC=CC=C1)C[C@@H]1CC[NH2+][C@@H]1O.CC(C)C[C@H](NC(=O)[C@@H](NC(=O)[C@H](C)[N-]C(=O)C1=NOC(C)=C1)C(C)C)C(=[OH+])N[C@H](CCC(=O)OCC1=CC=CC=C1)C[C@@H]1CC[NH2+][C@@H]1O.CC(C)C[C@H](NC(=O)[C@@H](NC(=O)[C@H](C)NC(=O)C1=NOC(C)=C1)C(C)C)C(=[OH+])N[C@H](CCC(=O)OCC1=CC=CC=C1)C[C@@H]1CC[NH2+][C@@H]1[O-].CC(C)C[C@H](NC(=O)[C@@H](NC(=O)[C@H](C)NC(=O)C1=NOC(C)=C1)C(C)C)C(=[OH+])[N-][C@H](CCC(=O)OCC1=CC=CC=C1)C[C@@H]1CC[NH2+][C@@H]1O.CC(C)C[C@H]([N-]C(=O)[C@@H]([N-]C(=O)[C@H](C)NC(=O)C1=NOC(C)=C1)C(C)C)C(=[OH+])N[C@H](CCC(=O)OCC1=CC=CC=C1)C[C@@H]1CCN[C@@H]1O.CC(C)C[C@H]([N-]C(=O)[C@@H](NC(=O)[C@H](C)[N-]C(=O)C1=NOC(C)=C1)C(C)C)C(=[OH+])N[C@H](CCC(=O)OCC1=CC=CC=C1)C[C@@H]1CCN[C@@H]1O.CC(C)C[C@H]([N-]C(=O)[C@@H](NC(=O)[C@H](C)NC(=O)C1=NOC(C)=C1)C(C)C)C(=[OH+])N[C@H](CCC(=O)OCC1=CC=CC=C1)C[C@@H]1CCN[C@@H]1[O-].CC(C)C[C@H]([N-]C(=O)[C@@H](NC(=O)[C@H](C)NC(=O)C1=NOC(C)=C1)C(C)C)C(=[OH+])[N-][C@H](CCC(=O)OCC1=CC=CC=C1)C[C@@H]1CCN[C@@H]1O.CC(C)C[C@H](NC(=O)[C@@H]([N-]C(=O)[C@H](C)[N-]C(=O)C1=NOC(C)=C1)C(C)C)C(=[OH+])N[C@H](CCC(=O)OCC1=CC=CC=C1)C[C@@H]1CCN[C@@H]1O.CC(C)C[C@H](NC(=O)[C@@H]([N-]C(=O)[C@H](C)NC(=O)C1=NOC(C)=C1)C(C)C)C(=[OH+])N[C@H](CCC(=O)OCC1=CC=CC=C1)C[C@@H]1CCN[C@@H]1[O-].CC(C)C[C@H](NC(=O)[C@@H]([N-]C(=O)[C@H](C)NC(=O)C1=NOC(C)=C1)C(C)C)C(=[OH+])[N-][C@H](CCC(=O)OCC1=CC=CC=C1)C[C@@H]1CCN[C@@H]1O.CC(C)C[C@H](NC(=O)[C@@H](NC(=O)[C@H](C)[N-]C(=O)C1=NOC(C)=C1)C(C)C)C(=[OH+])N[C@H](CCC(=O)OCC1=CC=CC=C1)C[C@@H]1CCN[C@@H]1[O-].CC(C)C[C@H](NC(=O)[C@@H](NC(=O)[C@H](C)[N-]C(=O)C1=NOC(C)=C1)C(C)C)C(=[OH+])[N-][C@H](CCC(=O)OCC1=CC=CC=C1)C[C@@H]1CCN[C@@H]1O.CC(C)C[C@H](NC(=O)[C@@H](NC(=O)[C@H](C)NC(=O)C1=NOC(C)=C1)C(C)C)C(=[OH+])[N-][C@H](CCC(=O)OCC1=CC=CC=C1)C[C@@H]1CCN[C@@H]1[O-].CC(C)C[C@H]([N-]C(=O)[C@@H](NC(=O)[C@H](C)NC(=O)C1=[NH+]OC(C)=C1)C(C)C)C(=O)N[C@H](CCC(=O)OCC1=CC=CC=C1)C[C@@H]1CC[NH2+][C@@H]1O.CC(C)C[C@H](NC(=O)[C@@H]([N-]C(=O)[C@H](C)NC(=O)C1=[NH+]OC(C)=C1)C(C)C)C(=O)N[C@H](CCC(=O)OCC1=CC=CC=C1)C[C@@H]1CC[NH2+][C@@H]1O.CC(C)C[C@H](NC(=O)[C@@H](NC(=O)[C@H](C)[N-]C(=O)C1=[NH+]OC(C)=C1)C(C)C)C(=O)N[C@H](CCC(=O)OCC1=CC=CC=C1)C[C@@H]1CC[NH2+][C@@H]1O.CC(C)C[C@H](NC(=O)[C@@H](NC(=O)[C@H](C)NC(=O)C1=[NH+]OC(C)=C1)C(C)C)C(=O)N[C@H](CCC(=O)OCC1=CC=CC=C1)C[C@@H]1CC[NH2+][C@@H]1[O-].CC(C)C[C@H](NC(=O)[C@@H](NC(=O)[C@H](C)NC(=O)C1=[NH+]OC(C)=C1)C(C)C)C(=O)[N-][C@H](CCC(=O)OCC1=CC=CC=C1)C[C@@H]1CC[NH2+][C@@H]1O.CC(C)C[C@H]([N-]C(=O)[C@@H]([N-]C(=O)[C@H](C)NC(=O)C1=[NH+]OC(C)=C1)C(C)C)C(=O)N[C@H](CCC(=O)OCC1=CC=CC=C1)C[C@@H]1CCN[C@@H]1O.CC(C)C[C@H]([N-]C(=O)[C@@H](NC(=O)[C@H](C)[N-]C(=O)C1=[NH+]OC(C)=C1)C(C)C)C(=O)N[C@H](CCC(=O)OCC1=CC=CC=C1)C[C@@H]1CCN[C@@H]1O.CC(C)C[C@H]([N-]C(=O)[C@@H](NC(=O)[C@H](C)NC(=O)C1=[NH+]OC(C)=C1)C(C)C)C(=O)N[C@H](CCC(=O)OCC1=CC=CC=C1)C[C@@H]1CCN[C@@H]1[O-].CC(C)C[C@H]([N-]C(=O)[C@@H](NC(=O)[C@H](C)NC(=O)C1=[NH+]OC(C)=C1)C(C)C)C(=O)[N-][C@H](CCC(=O)OCC1=CC=CC=C1)C[C@@H]1CCN[C@@H]1O.CC(C)C[C@H](NC(=O)[C@@H]([N-]C(=O)[C@H](C)[N-]C(=O)C1=[NH+]OC(C)=C1)C(C)C)C(=O)N[C@H](CCC(=O)OCC1=CC=CC=C1)C[C@@H]1CCN[C@@H]1O.CC(C)C[C@H](NC(=O)[C@@H]([N-]C(=O)[C@H](C)NC(=O)C1=[NH+]OC(C)=C1)C(C)C)C(=O)N[C@H](CCC(=O)OCC1=CC=CC=C1)C[C@@H]1CCN[C@@H]1[O-].CC(C)C[C@H](NC(=O)[C@@H]([N-]C(=O)[C@H](C)NC(=O)C1=[NH+]OC(C)=C1)C(C)C)C(=O)[N-][C@H](CCC(=O)OCC1=CC=CC=C1)C[C@@H]1CCN[C@@H]1O.CC(C)C[C@H](NC(=O)[C@@H](NC(=O)[C@H](C)[N-]C(=O)C1=[NH+]OC(C)=C1)C(C)C)C(=O)N[C@H](CCC(=O)OCC1=CC=CC=C1)C[C@@H]1CCN[C@@H]1[O-].CC(C)C[C@H](NC(=O)[C@@H](NC(=O)[C@H](C)[N-]C(=O)C1=[NH+]OC(C)=C1)C(C)C)C(=O)[N-][C@H](CCC(=O)OCC1=CC=CC=C1)C[C@@H]1CCN[C@@H]1O.CC(C)C[C@H](NC(=O)[C@@H](NC(=O)[C@H](C)NC(=O)C1=[NH+]OC(C)=C1)C(C)C)C(=O)[N-][C@H](CCC(=O)OCC1=CC=CC=C1)C[C@@H]1CCN[C@@H]1[O-].CC(C)C[C@H]([N-]C(=O)[C@@H]([N-]C(=O)[C@H](C)NC(=O)C1=NOC(C)=C1)C(C)C)C(=O)N[C@H](CCC(=O)OCC1=CC=CC=C1)C[C@@H]1CC[NH2+][C@@H]1O.CC(C)C[C@H]([N-]C(=O)[C@@H](NC(=O)[C@H](C)[N-]C(=O)C1=NOC(C)=C1)C(C)C)C(=O)N[C@H](CCC(=O)OCC1=CC=CC=C1)C[C@@H]1CC[NH2+][C@@H]1O.CC(C)C[C@H]([N-]C(=O)[C@@H](NC(=O)[C@H](C)NC(=O)C1=NOC(C)=C1)C(C)C)C(=O)N[C@H](CCC(=O)OCC1=CC=CC=C1)C[C@@H]1CC[NH2+][C@@H]1[O-].CC(C)C[C@H]([N-]C(=O)[C@@H](NC(=O)[C@H](C)NC(=O)C1=NOC(C)=C1)C(C)C)C(=O)[N-][C@H](CCC(=O)OCC1=CC=CC=C1)C[C@@H]1CC[NH2+][C@@H]1O.CC(C)C[C@H](NC(=O)[C@@H]([N-]C(=O)[C@H](C)[N-]C(=O)C1=NOC(C)=C1)C(C)C)C(=O)N[C@H](CCC(=O)OCC1=CC=CC=C1)C[C@@H]1CC[NH2+][C@@H]1O.CC(C)C[C@H](NC(=O)[C@@H]([N-]C(=O)[C@H](C)NC(=O)C1=NOC(C)=C1)C(C)C)C(=O)N[C@H](CCC(=O)OCC1=CC=CC=C1)C[C@@H]1CC[NH2+][C@@H]1[O-].CC(C)C[C@H](NC(=O)[C@@H]([N-]C(=O)[C@H](C)NC(=O)C1=NOC(C)=C1)C(C)C)C(=O)[N-][C@H](CCC(=O)OCC1=CC=CC=C1)C[C@@H]1CC[NH2+][C@@H]1O.CC(C)C[C@H](NC(=O)[C@@H](NC(=O)[C@H](C)[N-]C(=O)C1=NOC(C)=C1)C(C)C)C(=O)N[C@H](CCC(=O)OCC1=CC=CC=C1)C[C@@H]1CC[NH2+][C@@H]1[O-].CC(C)C[C@H](NC(=O)[C@@H](NC(=O)[C@H](C)[N-]C(=O)C1=NOC(C)=C1)C(C)C)C(=O)[N-][C@H](CCC(=O)OCC1=CC=CC=C1)C[C@@H]1CC[NH2+][C@@H]1O.CC(C)C[C@H](NC(=O)[C@@H](NC(=O)[C@H](C)NC(=O)C1=NOC(C)=C1)C(C)C)C(=O)[N-][C@H](CCC(=O)OCC1=CC=CC=C1)C[C@@H]1CC[NH2+][C@@H]1[O-].CC(C)C[C@H]([N-]C(=O)[C@@H]([N-]C(=O)[C@H](C)[N-]C(=O)C1=NOC(C)=C1)C(C)C)C(=O)N[C@H](CCC(=O)OCC1=CC=CC=C1)C[C@@H]1CCN[C@@H]1O.CC(C)C[C@H]([N-]C(=O)[C@@H]([N-]C(=O)[C@H](C)NC(=O)C1=NOC(C)=C1)C(C)C)C(=O)N[C@H](CCC(=O)OCC1=CC=CC=C1)C[C@@H]1CCN[C@@H]1[O-].CC(C)C[C@H]([N-]C(=O)[C@@H]([N-]C(=O)[C@H](C)NC(=O)C1=NOC(C)=C1)C(C)C)C(=O)[N-][C@H](CCC(=O)OCC1=CC=CC=C1)C[C@@H]1CCN[C@@H]1O.CC(C)C[C@H]([N-]C(=O)[C@@H](NC(=O)[C@H](C)[N-]C(=O)C1=NOC(C)=C1)C(C)C)C(=O)N[C@H](CCC(=O)OCC1=CC=CC=C1)C[C@@H]1CCN[C@@H]1[O-].CC(C)C[C@H]([N-]C(=O)[C@@H](NC(=O)[C@H](C)[N-]C(=O)C1=NOC(C)=C1)C(C)C)C(=O)[N-][C@H](CCC(=O)OCC1=CC=CC=C1)C[C@@H]1CCN[C@@H]1O.CC(C)C[C@H]([N-]C(=O)[C@@H](NC(=O)[C@H](C)NC(=O)C1=NOC(C)=C1)C(C)C)C(=O)[N-][C@H](CCC(=O)OCC1=CC=CC=C1)C[C@@H]1CCN[C@@H]1[O-].CC(C)C[C@H](NC(=O)[C@@H]([N-]C(=O)[C@H](C)[N-]C(=O)C1=NOC(C)=C1)C(C)C)C(=O)N[C@H](CCC(=O)OCC1=CC=CC=C1)C[C@@H]1CCN[C@@H]1[O-].CC(C)C[C@H](NC(=O)[C@@H]([N-]C(=O)[C@H](C)[N-]C(=O)C1=NOC(C)=C1)C(C)C)C(=O)[N-][C@H](CCC(=O)OCC1=CC=CC=C1)C[C@@H]1CCN[C@@H]1O.CC(C)C[C@H](NC(=O)[C@@H]([N-]C(=O)[C@H](C)NC(=O)C1=NOC(C)=C1)C(C)C)C(=O)[N-][C@H](CCC(=O)OCC1=CC=CC=C1)C[C@@H]1CCN[C@@H]1[O-].CC(C)C[C@H](NC(=O)[C@@H](NC(=O)[C@H](C)[N-]C(=O)C1=NOC(C)=C1)C(C)C)C(=O)[N-][C@H](CCC(=O)OCC1=CC=CC=C1)C[C@@H]1CCN[C@@H]1[O-].CC(C)C[C@H]([N-]C(=O)[C@@H](NC(=O)[C@H](C)NC(=O)C1=[NH+]OC(C)=C1)C(C)C)C(=[OH+])N[C@H](CCC(=O)OCC1=CC=CC=C1)C[C@@H]1CC[NH2+][C@@H]1O.CC(C)C[C@H](NC(=O)[C@@H]([N-]C(=O)[C@H](C)NC(=O)C1=[NH+]OC(C)=C1)C(C)C)C(=[OH+])N[C@H](CCC(=O)OCC1=CC=CC=C1)C[C@@H]1CC[NH2+][C@@H]1O.CC(C)C[C@H](NC(=O)[C@@H](NC(=O)[C@H](C)[N-]C(=O)C1=[NH+]OC(C)=C1)C(C)C)C(=[OH+])N[C@H](CCC(=O)OCC1=CC=CC=C1)C[C@@H]1CC[NH2+][C@@H]1O.CC(C)C[C@H](NC(=O)[C@@H](NC(=O)[C@H](C)NC(=O)C1=[NH+]OC(C)=C1)C(C)C)C(=[OH+])N[C@H](CCC(=O)OCC1=CC=CC=C1)C[C@@H]1CC[NH2+][C@@H]1[O-].CC(C)C[C@H](NC(=O)[C@@H](NC(=O)[C@H](C)NC(=O)C1=[NH+]OC(C)=C1)C(C)C)C(=[OH+])[N-][C@H](CCC(=O)OCC1=CC=CC=C1)C[C@@H]1CC[NH2+][C@@H]1O.CC(C)C[C@H]([N-]C(=O)[C@@H]([N-]C(=O)[C@H](C)NC(=O)C1=[NH+]OC(C)=C1)C(C)C)C(=[OH+])N[C@H](CCC(=O)OCC1=CC=CC=C1)C[C@@H]1CCN[C@@H]1O.CC(C)C[C@H]([N-]C(=O)[C@@H](NC(=O)[C@H](C)[N-]C(=O)C1=[NH+]OC(C)=C1)C(C)C)C(=[OH+])N[C@H](CCC(=O)OCC1=CC=CC=C1)C[C@@H]1CCN[C@@H]1O.CC(C)C[C@H]([N-]C(=O)[C@@H](NC(=O)[C@H](C)NC(=O)C1=[NH+]OC(C)=C1)C(C)C)C(=[OH+])N[C@H](CCC(=O)OCC1=CC=CC=C1)C[C@@H]1CCN[C@@H]1[O-].CC(C)C[C@H]([N-]C(=O)[C@@H](NC(=O)[C@H](C)NC(=O)C1=[NH+]OC(C)=C1)C(C)C)C(=[OH+])[N-][C@H](CCC(=O)OCC1=CC=CC=C1)C[C@@H]1CCN[C@@H]1O.CC(C)C[C@H](NC(=O)[C@@H]([N-]C(=O)[C@H](C)[N-]C(=O)C1=[NH+]OC(C)=C1)C(C)C)C(=[OH+])N[C@H](CCC(=O)OCC1=CC=CC=C1)C[C@@H]1CCN[C@@H]1O.CC(C)C[C@H](NC(=O)[C@@H]([N-]C(=O)[C@H](C)NC(=O)C1=[NH+]OC(C)=C1)C(C)C)C(=[OH+])N[C@H](CCC(=O)OCC1=CC=CC=C1)C[C@@H]1CCN[C@@H]1[O-].CC(C)C[C@H](NC(=O)[C@@H]([N-]C(=O)[C@H](C)NC(=O)C1=[NH+]OC(C)=C1)C(C)C)C(=[OH+])[N-][C@H](CCC(=O)OCC1=CC=CC=C1)C[C@@H]1CCN[C@@H]1O.CC(C)C[C@H](NC(=O)[C@@H](NC(=O)[C@H](C)[N-]C(=O)C1=[NH+]OC(C)=C1)C(C)C)C(=[OH+])N[C@H](CCC(=O)OCC1=CC=CC=C1)C[C@@H]1CCN[C@@H]1[O-].CC(C)C[C@H](NC(=O)[C@@H](NC(=O)[C@H](C)[N-]C(=O)C1=[NH+]OC(C)=C1)C(C)C)C(=[OH+])[N-][C@H](CCC(=O)OCC1=CC=CC=C1)C[C@@H]1CCN[C@@H]1O.CC(C)C[C@H](NC(=O)[C@@H](NC(=O)[C@H](C)NC(=O)C1=[NH+]OC(C)=C1)C(C)C)C(=[OH+])[N-][C@H](CCC(=O)OCC1=CC=CC=C1)C[C@@H]1CCN[C@@H]1[O-].CC(C)C[C@H]([N-]C(=O)[C@@H]([N-]C(=O)[C@H](C)NC(=O)C1=NOC(C)=C1)C(C)C)C(=[OH+])N[C@H](CCC(=O)OCC1=CC=CC=C1)C[C@@H]1CC[NH2+][C@@H]1O.CC(C)C[C@H]([N-]C(=O)[C@@H](NC(=O)[C@H](C)[N-]C(=O)C1=NOC(C)=C1)C(C)C)C(=[OH+])N[C@H](CCC(=O)OCC1=CC=CC=C1)C[C@@H]1CC[NH2+][C@@H]1O.CC(C)C[C@H]([N-]C(=O)[C@@H](NC(=O)[C@H](C)NC(=O)C1=NOC(C)=C1)C(C)C)C(=[OH+])N[C@H](CCC(=O)OCC1=CC=CC=C1)C[C@@H]1CC[NH2+][C@@H]1[O-].CC(C)C[C@H]([N-]C(=O)[C@@H](NC(=O)[C@H](C)NC(=O)C1=NOC(C)=C1)C(C)C)C(=[OH+])[N-][C@H](CCC(=O)OCC1=CC=CC=C1)C[C@@H]1CC[NH2+][C@@H]1O.CC(C)C[C@H](NC(=O)[C@@H]([N-]C(=O)[C@H](C)[N-]C(=O)C1=NOC(C)=C1)C(C)C)C(=[OH+])N[C@H](CCC(=O)OCC1=CC=CC=C1)C[C@@H]1CC[NH2+][C@@H]1O.CC(C)C[C@H](NC(=O)[C@@H]([N-]C(=O)[C@H](C)NC(=O)C1=NOC(C)=C1)C(C)C)C(=[OH+])N[C@H](CCC(=O)OCC1=CC=CC=C1)C[C@@H]1CC[NH2+][C@@H]1[O-].CC(C)C[C@H](NC(=O)[C@@H]([N-]C(=O)[C@H](C)NC(=O)C1=NOC(C)=C1)C(C)C)C(=[OH+])[N-][C@H](CCC(=O)OCC1=CC=CC=C1)C[C@@H]1CC[NH2+][C@@H]1O.CC(C)C[C@H](NC(=O)[C@@H](NC(=O)[C@H](C)[N-]C(=O)C1=NOC(C)=C1)C(C)C)C(=[OH+])N[C@H](CCC(=O)OCC1=CC=CC=C1)C[C@@H]1CC[NH2+][C@@H]1[O-].CC(C)C[C@H](NC(=O)[C@@H](NC(=O)[C@H](C)[N-]C(=O)C1=NOC(C)=C1)C(C)C)C(=[OH+])[N-][C@H](CCC(=O)OCC1=CC=CC=C1)C[C@@H]1CC[NH2+][C@@H]1O.CC(C)C[C@H](NC(=O)[C@@H](NC(=O)[C@H](C)NC(=O)C1=NOC(C)=C1)C(C)C)C(=[OH+])[N-][C@H](CCC(=O)OCC1=CC=CC=C1)C[C@@H]1CC[NH2+][C@@H]1[O-].CC(C)C[C@H]([N-]C(=O)[C@@H]([N-]C(=O)[C@H](C)[N-]C(=O)C1=NOC(C)=C1)C(C)C)C(=[OH+])N[C@H](CCC(=O)OCC1=CC=CC=C1)C[C@@H]1CCN[C@@H]1O.CC(C)C[C@H]([N-]C(=O)[C@@H]([N-]C(=O)[C@H](C)NC(=O)C1=NOC(C)=C1)C(C)C)C(=[OH+])N[C@H](CCC(=O)OCC1=CC=CC=C1)C[C@@H]1CCN[C@@H]1[O-].CC(C)C[C@H]([N-]C(=O)[C@@H]([N-]C(=O)[C@H](C)NC(=O)C1=NOC(C)=C1)C(C)C)C(=[OH+])[N-][C@H](CCC(=O)OCC1=CC=CC=C1)C[C@@H]1CCN[C@@H]1O.CC(C)C[C@H]([N-]C(=O)[C@@H](NC(=O)[C@H](C)[N-]C(=O)C1=NOC(C)=C1)C(C)C)C(=[OH+])N[C@H](CCC(=O)OCC1=CC=CC=C1)C[C@@H]1CCN[C@@H]1[O-].CC(C)C[C@H]([N-]C(=O)[C@@H](NC(=O)[C@H](C)[N-]C(=O)C1=NOC(C)=C1)C(C)C)C(=[OH+])[N-][C@H](CCC(=O)OCC1=CC=CC=C1)C[C@@H]1CCN[C@@H]1O.CC(C)C[C@H]([N-]C(=O)[C@@H](NC(=O)[C@H](C)NC(=O)C1=NOC(C)=C1)C(C)C)C(=[OH+])[N-][C@H](CCC(=O)OCC1=CC=CC=C1)C[C@@H]1CCN[C@@H]1[O-].CC(C)C[C@H](NC(=O)[C@@H]([N-]C(=O)[C@H](C)[N-]C(=O)C1=NOC(C)=C1)C(C)C)C(=[OH+])N[C@H](CCC(=O)OCC1=CC=CC=C1)C[C@@H]1CCN[C@@H]1[O-].CC(C)C[C@H](NC(=O)[C@@H]([N-]C(=O)[C@H](C)[N-]C(=O)C1=NOC(C)=C1)C(C)C)C(=[OH+])[N-][C@H](CCC(=O)OCC1=CC=CC=C1)C[C@@H]1CCN[C@@H]1O.CC(C)C[C@H](NC(=O)[C@@H]([N-]C(=O)[C@H](C)NC(=O)C1=NOC(C)=C1)C(C)C)C(=[OH+])[N-][C@H](CCC(=O)OCC1=CC=CC=C1)C[C@@H]1CCN[C@@H]1[O-].CC(C)C[C@H](NC(=O)[C@@H](NC(=O)[C@H](C)[N-]C(=O)C1=NOC(C)=C1)C(C)C)C(=[OH+])[N-][C@H](CCC(=O)OCC1=CC=CC=C1)C[C@@H]1CCN[C@@H]1[O-].CC(C)C[C@H]([N-]C(=O)[C@@H]([N-]C(=O)[C@H](C)NC(=O)C1=[NH+]OC(C)=C1)C(C)C)C(=O)N[C@H](CCC(=O)OCC1=CC=CC=C1)C[C@@H]1CC[NH2+][C@@H]1O.CC(C)C[C@H]([N-]C(=O)[C@@H](NC(=O)[C@H](C)[N-]C(=O)C1=[NH+]OC(C)=C1)C(C)C)C(=O)N[C@H](CCC(=O)OCC1=CC=CC=C1)C[C@@H]1CC[NH2+][C@@H]1O.CC(C)C[C@H]([N-]C(=O)[C@@H](NC(=O)[C@H](C)NC(=O)C1=[NH+]OC(C)=C1)C(C)C)C(=O)N[C@H](CCC(=O)OCC1=CC=CC=C1)C[C@@H]1CC[NH2+][C@@H]1[O-].CC(C)C[C@H]([N-]C(=O)[C@@H](NC(=O)[C@H](C)NC(=O)C1=[NH+]OC(C)=C1)C(C)C)C(=O)[N-][C@H](CCC(=O)OCC1=CC=CC=C1)C[C@@H]1CC[NH2+][C@@H]1O.CC(C)C[C@H](NC(=O)[C@@H]([N-]C(=O)[C@H](C)[N-]C(=O)C1=[NH+]OC(C)=C1)C(C)C)C(=O)N[C@H](CCC(=O)OCC1=CC=CC=C1)C[C@@H]1CC[NH2+][C@@H]1O.CC(C)C[C@H](NC(=O)[C@@H]([N-]C(=O)[C@H](C)NC(=O)C1=[NH+]OC(C)=C1)C(C)C)C(=O)N[C@H](CCC(=O)OCC1=CC=CC=C1)C[C@@H]1CC[NH2+][C@@H]1[O-].CC(C)C[C@H](NC(=O)[C@@H]([N-]C(=O)[C@H](C)NC(=O)C1=[NH+]OC(C)=C1)C(C)C)C(=O)[N-][C@H](CCC(=O)OCC1=CC=CC=C1)C[C@@H]1CC[NH2+][C@@H]1O.CC(C)C[C@H](NC(=O)[C@@H](NC(=O)[C@H](C)[N-]C(=O)C1=[NH+]OC(C)=C1)C(C)C)C(=O)N[C@H](CCC(=O)OCC1=CC=CC=C1)C[C@@H]1CC[NH2+][C@@H]1[O-].CC(C)C[C@H](NC(=O)[C@@H](NC(=O)[C@H](C)[N-]C(=O)C1=[NH+]OC(C)=C1)C(C)C)C(=O)[N-][C@H](CCC(=O)OCC1=CC=CC=C1)C[C@@H]1CC[NH2+][C@@H]1O.CC(C)C[C@H](NC(=O)[C@@H](NC(=O)[C@H](C)NC(=O)C1=[NH+]OC(C)=C1)C(C)C)C(=O)[N-][C@H](CCC(=O)OCC1=CC=CC=C1)C[C@@H]1CC[NH2+][C@@H]1[O-].CC(C)C[C@H]([N-]C(=O)[C@@H]([N-]C(=O)[C@H](C)[N-]C(=O)C1=[NH+]OC(C)=C1)C(C)C)C(=O)N[C@H](CCC(=O)OCC1=CC=CC=C1)C[C@@H]1CCN[C@@H]1O.CC(C)C[C@H]([N-]C(=O)[C@@H]([N-]C(=O)[C@H](C)NC(=O)C1=[NH+]OC(C)=C1)C(C)C)C(=O)N[C@H](CCC(=O)OCC1=CC=CC=C1)C[C@@H]1CCN[C@@H]1[O-].CC(C)C[C@H]([N-]C(=O)[C@@H]([N-]C(=O)[C@H](C)NC(=O)C1=[NH+]OC(C)=C1)C(C)C)C(=O)[N-][C@H](CCC(=O)OCC1=CC=CC=C1)C[C@@H]1CCN[C@@H]1O.CC(C)C[C@H]([N-]C(=O)[C@@H](NC(=O)[C@H](C)[N-]C(=O)C1=[NH+]OC(C)=C1)C(C)C)C(=O)N[C@H](CCC(=O)OCC1=CC=CC=C1)C[C@@H]1CCN[C@@H]1[O-].CC(C)C[C@H]([N-]C(=O)[C@@H](NC(=O)[C@H](C)[N-]C(=O)C1=[NH+]OC(C)=C1)C(C)C)C(=O)[N-][C@H](CCC(=O)OCC1=CC=CC=C1)C[C@@H]1CCN[C@@H]1O.CC(C)C[C@H]([N-]C(=O)[C@@H](NC(=O)[C@H](C)NC(=O)C1=[NH+]OC(C)=C1)C(C)C)C(=O)[N-][C@H](CCC(=O)OCC1=CC=CC=C1)C[C@@H]1CCN[C@@H]1[O-].CC(C)C[C@H](NC(=O)[C@@H]([N-]C(=O)[C@H](C)[N-]C(=O)C1=[NH+]OC(C)=C1)C(C)C)C(=O)N[C@H](CCC(=O)OCC1=CC=CC=C1)C[C@@H]1CCN[C@@H]1[O-].CC(C)C[C@H](NC(=O)[C@@H]([N-]C(=O)[C@H](C)[N-]C(=O)C1=[NH+]OC(C)=C1)C(C)C)C(=O)[N-][C@H](CCC(=O)OCC1=CC=CC=C1)C[C@@H]1CCN[C@@H]1O.CC(C)C[C@H](NC(=O)[C@@H]([N-]C(=O)[C@H](C)NC(=O)C1=[NH+]OC(C)=C1)C(C)C)C(=O)[N-][C@H](CCC(=O)OCC1=CC=CC=C1)C[C@@H]1CCN[C@@H]1[O-].CC(C)C[C@H](NC(=O)[C@@H](NC(=O)[C@H](C)[N-]C(=O)C1=[NH+]OC(C)=C1)C(C)C)C(=O)[N-][C@H](CCC(=O)OCC1=CC=CC=C1)C[C@@H]1CCN[C@@H]1[O-].CC(C)C[C@H]([N-]C(=O)[C@@H]([N-]C(=O)[C@H](C)[N-]C(=O)C1=NOC(C)=C1)C(C)C)C(=O)N[C@H](CCC(=O)OCC1=CC=CC=C1)C[C@@H]1CC[NH2+][C@@H]1O.CC(C)C[C@H]([N-]C(=O)[C@@H]([N-]C(=O)[C@H](C)NC(=O)C1=NOC(C)=C1)C(C)C)C(=O)N[C@H](CCC(=O)OCC1=CC=CC=C1)C[C@@H]1CC[NH2+][C@@H]1[O-].CC(C)C[C@H]([N-]C(=O)[C@@H]([N-]C(=O)[C@H](C)NC(=O)C1=NOC(C)=C1)C(C)C)C(=O)[N-][C@H](CCC(=O)OCC1=CC=CC=C1)C[C@@H]1CC[NH2+][C@@H]1O.CC(C)C[C@H]([N-]C(=O)[C@@H](NC(=O)[C@H](C)[N-]C(=O)C1=NOC(C)=C1)C(C)C)C(=O)N[C@H](CCC(=O)OCC1=CC=CC=C1)C[C@@H]1CC[NH2+][C@@H]1[O-].CC(C)C[C@H]([N-]C(=O)[C@@H](NC(=O)[C@H](C)[N-]C(=O)C1=NOC(C)=C1)C(C)C)C(=O)[N-][C@H](CCC(=O)OCC1=CC=CC=C1)C[C@@H]1CC[NH2+][C@@H]1O.CC(C)C[C@H]([N-]C(=O)[C@@H](NC(=O)[C@H](C)NC(=O)C1=NOC(C)=C1)C(C)C)C(=O)[N-][C@H](CCC(=O)OCC1=CC=CC=C1)C[C@@H]1CC[NH2+][C@@H]1[O-].CC(C)C[C@H](NC(=O)[C@@H]([N-]C(=O)[C@H](C)[N-]C(=O)C1=NOC(C)=C1)C(C)C)C(=O)N[C@H](CCC(=O)OCC1=CC=CC=C1)C[C@@H]1CC[NH2+][C@@H]1[O-].CC(C)C[C@H](NC(=O)[C@@H]([N-]C(=O)[C@H](C)[N-]C(=O)C1=NOC(C)=C1)C(C)C)C(=O)[N-][C@H](CCC(=O)OCC1=CC=CC=C1)C[C@@H]1CC[NH2+][C@@H]1O.CC(C)C[C@H](NC(=O)[C@@H]([N-]C(=O)[C@H](C)NC(=O)C1=NOC(C)=C1)C(C)C)C(=O)[N-][C@H](CCC(=O)OCC1=CC=CC=C1)C[C@@H]1CC[NH2+][C@@H]1[O-].CC(C)C[C@H](NC(=O)[C@@H](NC(=O)[C@H](C)[N-]C(=O)C1=NOC(C)=C1)C(C)C)C(=O)[N-][C@H](CCC(=O)OCC1=CC=CC=C1)C[C@@H]1CC[NH2+][C@@H]1[O-].CC(C)C[C@H]([N-]C(=O)[C@@H]([N-]C(=O)[C@H](C)[N-]C(=O)C1=NOC(C)=C1)C(C)C)C(=O)N[C@H](CCC(=O)OCC1=CC=CC=C1)C[C@@H]1CCN[C@@H]1[O-].CC(C)C[C@H]([N-]C(=O)[C@@H]([N-]C(=O)[C@H](C)[N-]C(=O)C1=NOC(C)=C1)C(C)C)C(=O)[N-][C@H](CCC(=O)OCC1=CC=CC=C1)C[C@@H]1CCN[C@@H]1O.CC(C)C[C@H]([N-]C(=O)[C@@H]([N-]C(=O)[C@H](C)NC(=O)C1=NOC(C)=C1)C(C)C)C(=O)[N-][C@H](CCC(=O)OCC1=CC=CC=C1)C[C@@H]1CCN[C@@H]1[O-].CC(C)C[C@H]([N-]C(=O)[C@@H](NC(=O)[C@H](C)[N-]C(=O)C1=NOC(C)=C1)C(C)C)C(=O)[N-][C@H](CCC(=O)OCC1=CC=CC=C1)C[C@@H]1CCN[C@@H]1[O-].CC(C)C[C@H](NC(=O)[C@@H]([N-]C(=O)[C@H](C)[N-]C(=O)C1=NOC(C)=C1)C(C)C)C(=O)[N-][C@H](CCC(=O)OCC1=CC=CC=C1)C[C@@H]1CCN[C@@H]1[O-].CC(C)C[C@H]([N-]C(=O)[C@@H]([N-]C(=O)[C@H](C)NC(=O)C1=[NH+]OC(C)=C1)C(C)C)C(=[OH+])N[C@H](CCC(=O)OCC1=CC=CC=C1)C[C@@H]1CC[NH2+][C@@H]1O.CC(C)C[C@H]([N-]C(=O)[C@@H](NC(=O)[C@H](C)[N-]C(=O)C1=[NH+]OC(C)=C1)C(C)C)C(=[OH+])N[C@H](CCC(=O)OCC1=CC=CC=C1)C[C@@H]1CC[NH2+][C@@H]1O.CC(C)C[C@H]([N-]C(=O)[C@@H](NC(=O)[C@H](C)NC(=O)C1=[NH+]OC(C)=C1)C(C)C)C(=[OH+])N[C@H](CCC(=O)OCC1=CC=CC=C1)C[C@@H]1CC[NH2+][C@@H]1[O-].CC(C)C[C@H]([N-]C(=O)[C@@H](NC(=O)[C@H](C)NC(=O)C1=[NH+]OC(C)=C1)C(C)C)C(=[OH+])[N-][C@H](CCC(=O)OCC1=CC=CC=C1)C[C@@H]1CC[NH2+][C@@H]1O.CC(C)C[C@H](NC(=O)[C@@H]([N-]C(=O)[C@H](C)[N-]C(=O)C1=[NH+]OC(C)=C1)C(C)C)C(=[OH+])N[C@H](CCC(=O)OCC1=CC=CC=C1)C[C@@H]1CC[NH2+][C@@H]1O.CC(C)C[C@H](NC(=O)[C@@H]([N-]C(=O)[C@H](C)NC(=O)C1=[NH+]OC(C)=C1)C(C)C)C(=[OH+])N[C@H](CCC(=O)OCC1=CC=CC=C1)C[C@@H]1CC[NH2+][C@@H]1[O-].CC(C)C[C@H](NC(=O)[C@@H]([N-]C(=O)[C@H](C)NC(=O)C1=[NH+]OC(C)=C1)C(C)C)C(=[OH+])[N-][C@H](CCC(=O)OCC1=CC=CC=C1)C[C@@H]1CC[NH2+][C@@H]1O.CC(C)C[C@H](NC(=O)[C@@H](NC(=O)[C@H](C)[N-]C(=O)C1=[NH+]OC(C)=C1)C(C)C)C(=[OH+])N[C@H](CCC(=O)OCC1=CC=CC=C1)C[C@@H]1CC[NH2+][C@@H]1[O-].CC(C)C[C@H](NC(=O)[C@@H](NC(=O)[C@H](C)[N-]C(=O)C1=[NH+]OC(C)=C1)C(C)C)C(=[OH+])[N-][C@H](CCC(=O)OCC1=CC=CC=C1)C[C@@H]1CC[NH2+][C@@H]1O.CC(C)C[C@H](NC(=O)[C@@H](NC(=O)[C@H](C)NC(=O)C1=[NH+]OC(C)=C1)C(C)C)C(=[OH+])[N-][C@H](CCC(=O)OCC1=CC=CC=C1)C[C@@H]1CC[NH2+][C@@H]1[O-].CC(C)C[C@H]([N-]C(=O)[C@@H]([N-]C(=O)[C@H](C)[N-]C(=O)C1=[NH+]OC(C)=C1)C(C)C)C(=[OH+])N[C@H](CCC(=O)OCC1=CC=CC=C1)C[C@@H]1CCN[C@@H]1O.CC(C)C[C@H]([N-]C(=O)[C@@H]([N-]C(=O)[C@H](C)NC(=O)C1=[NH+]OC(C)=C1)C(C)C)C(=[OH+])N[C@H](CCC(=O)OCC1=CC=CC=C1)C[C@@H]1CCN[C@@H]1[O-].CC(C)C[C@H]([N-]C(=O)[C@@H]([N-]C(=O)[C@H](C)NC(=O)C1=[NH+]OC(C)=C1)C(C)C)C(=[OH+])[N-][C@H](CCC(=O)OCC1=CC=CC=C1)C[C@@H]1CCN[C@@H]1O.CC(C)C[C@H]([N-]C(=O)[C@@H](NC(=O)[C@H](C)[N-]C(=O)C1=[NH+]OC(C)=C1)C(C)C)C(=[OH+])N[C@H](CCC(=O)OCC1=CC=CC=C1)C[C@@H]1CCN[C@@H]1[O-].CC(C)C[C@H]([N-]C(=O)[C@@H](NC(=O)[C@H](C)[N-]C(=O)C1=[NH+]OC(C)=C1)C(C)C)C(=[OH+])[N-][C@H](CCC(=O)OCC1=CC=CC=C1)C[C@@H]1CCN[C@@H]1O.CC(C)C[C@H]([N-]C(=O)[C@@H](NC(=O)[C@H](C)NC(=O)C1=[NH+]OC(C)=C1)C(C)C)C(=[OH+])[N-][C@H](CCC(=O)OCC1=CC=CC=C1)C[C@@H]1CCN[C@@H]1[O-].CC(C)C[C@H](NC(=O)[C@@H]([N-]C(=O)[C@H](C)[N-]C(=O)C1=[NH+]OC(C)=C1)C(C)C)C(=[OH+])N[C@H](CCC(=O)OCC1=CC=CC=C1)C[C@@H]1CCN[C@@H]1[O-].CC(C)C[C@H](NC(=O)[C@@H]([N-]C(=O)[C@H](C)[N-]C(=O)C1=[NH+]OC(C)=C1)C(C)C)C(=[OH+])[N-][C@H](CCC(=O)OCC1=CC=CC=C1)C[C@@H]1CCN[C@@H]1O.CC(C)C[C@H](NC(=O)[C@@H]([N-]C(=O)[C@H](C)NC(=O)C1=[NH+]OC(C)=C1)C(C)C)C(=[OH+])[N-][C@H](CCC(=O)OCC1=CC=CC=C1)C[C@@H]1CCN[C@@H]1[O-].CC(C)C[C@H](NC(=O)[C@@H](NC(=O)[C@H](C)[N-]C(=O)C1=[NH+]OC(C)=C1)C(C)C)C(=[OH+])[N-][C@H](CCC(=O)OCC1=CC=CC=C1)C[C@@H]1CCN[C@@H]1[O-].CC(C)C[C@H]([N-]C(=O)[C@@H]([N-]C(=O)[C@H](C)[N-]C(=O)C1=NOC(C)=C1)C(C)C)C(=[OH+])N[C@H](CCC(=O)OCC1=CC=CC=C1)C[C@@H]1CC[NH2+][C@@H]1O.CC(C)C[C@H]([N-]C(=O)[C@@H]([N-]C(=O)[C@H](C)NC(=O)C1=NOC(C)=C1)C(C)C)C(=[OH+])N[C@H](CCC(=O)OCC1=CC=CC=C1)C[C@@H]1CC[NH2+][C@@H]1[O-].CC(C)C[C@H]([N-]C(=O)[C@@H]([N-]C(=O)[C@H](C)NC(=O)C1=NOC(C)=C1)C(C)C)C(=[OH+])[N-][C@H](CCC(=O)OCC1=CC=CC=C1)C[C@@H]1CC[NH2+][C@@H]1O.CC(C)C[C@H]([N-]C(=O)[C@@H](NC(=O)[C@H](C)[N-]C(=O)C1=NOC(C)=C1)C(C)C)C(=[OH+])N[C@H](CCC(=O)OCC1=CC=CC=C1)C[C@@H]1CC[NH2+][C@@H]1[O-].CC(C)C[C@H]([N-]C(=O)[C@@H](NC(=O)[C@H](C)[N-]C(=O)C1=NOC(C)=C1)C(C)C)C(=[OH+])[N-][C@H](CCC(=O)OCC1=CC=CC=C1)C[C@@H]1CC[NH2+][C@@H]1O.CC(C)C[C@H]([N-]C(=O)[C@@H](NC(=O)[C@H](C)NC(=O)C1=NOC(C)=C1)C(C)C)C(=[OH+])[N-][C@H](CCC(=O)OCC1=CC=CC=C1)C[C@@H]1CC[NH2+][C@@H]1[O-].CC(C)C[C@H](NC(=O)[C@@H]([N-]C(=O)[C@H](C)[N-]C(=O)C1=NOC(C)=C1)C(C)C)C(=[OH+])N[C@H](CCC(=O)OCC1=CC=CC=C1)C[C@@H]1CC[NH2+][C@@H]1[O-].CC(C)C[C@H](NC(=O)[C@@H]([N-]C(=O)[C@H](C)[N-]C(=O)C1=NOC(C)=C1)C(C)C)C(=[OH+])[N-][C@H](CCC(=O)OCC1=CC=CC=C1)C[C@@H]1CC[NH2+][C@@H]1O.CC(C)C[C@H](NC(=O)[C@@H]([N-]C(=O)[C@H](C)NC(=O)C1=NOC(C)=C1)C(C)C)C(=[OH+])[N-][C@H](CCC(=O)OCC1=CC=CC=C1)C[C@@H]1CC[NH2+][C@@H]1[O-].CC(C)C[C@H](NC(=O)[C@@H](NC(=O)[C@H](C)[N-]C(=O)C1=NOC(C)=C1)C(C)C)C(=[OH+])[N-][C@H](CCC(=O)OCC1=CC=CC=C1)C[C@@H]1CC[NH2+][C@@H]1[O-].CC(C)C[C@H]([N-]C(=O)[C@@H]([N-]C(=O)[C@H](C)[N-]C(=O)C1=NOC(C)=C1)C(C)C)C(=[OH+])N[C@H](CCC(=O)OCC1=CC=CC=C1)C[C@@H]1CCN[C@@H]1[O-].CC(C)C[C@H]([N-]C(=O)[C@@H]([N-]C(=O)[C@H](C)[N-]C(=O)C1=NOC(C)=C1)C(C)C)C(=[OH+])[N-][C@H](CCC(=O)OCC1=CC=CC=C1)C[C@@H]1CCN[C@@H]1O.CC(C)C[C@H]([N-]C(=O)[C@@H]([N-]C(=O)[C@H](C)NC(=O)C1=NOC(C)=C1)C(C)C)C(=[OH+])[N-][C@H](CCC(=O)OCC1=CC=CC=C1)C[C@@H]1CCN[C@@H]1[O-].CC(C)C[C@H]([N-]C(=O)[C@@H](NC(=O)[C@H](C)[N-]C(=O)C1=NOC(C)=C1)C(C)C)C(=[OH+])[N-][C@H](CCC(=O)OCC1=CC=CC=C1)C[C@@H]1CCN[C@@H]1[O-].CC(C)C[C@H](NC(=O)[C@@H]([N-]C(=O)[C@H](C)[N-]C(=O)C1=NOC(C)=C1)C(C)C)C(=[OH+])[N-][C@H](CCC(=O)OCC1=CC=CC=C1)C[C@@H]1CCN[C@@H]1[O-].CC(C)C[C@H]([N-]C(=O)[C@@H]([N-]C(=O)[C@H](C)[N-]C(=O)C1=[NH+]OC(C)=C1)C(C)C)C(=O)N[C@H](CCC(=O)OCC1=CC=CC=C1)C[C@@H]1CC[NH2+][C@@H]1O.CC(C)C[C@H]([N-]C(=O)[C@@H]([N-]C(=O)[C@H](C)NC(=O)C1=[NH+]OC(C)=C1)C(C)C)C(=O)N[C@H](CCC(=O)OCC1=CC=CC=C1)C[C@@H]1CC[NH2+][C@@H]1[O-].CC(C)C[C@H]([N-]C(=O)[C@@H]([N-]C(=O)[C@H](C)NC(=O)C1=[NH+]OC(C)=C1)C(C)C)C(=O)[N-][C@H](CCC(=O)OCC1=CC=CC=C1)C[C@@H]1CC[NH2+][C@@H]1O.CC(C)C[C@H]([N-]C(=O)[C@@H](NC(=O)[C@H](C)[N-]C(=O)C1=[NH+]OC(C)=C1)C(C)C)C(=O)N[C@H](CCC(=O)OCC1=CC=CC=C1)C[C@@H]1CC[NH2+][C@@H]1[O-].CC(C)C[C@H]([N-]C(=O)[C@@H](NC(=O)[C@H](C)[N-]C(=O)C1=[NH+]OC(C)=C1)C(C)C)C(=O)[N-][C@H](CCC(=O)OCC1=CC=CC=C1)C[C@@H]1CC[NH2+][C@@H]1O.CC(C)C[C@H]([N-]C(=O)[C@@H](NC(=O)[C@H](C)NC(=O)C1=[NH+]OC(C)=C1)C(C)C)C(=O)[N-][C@H](CCC(=O)OCC1=CC=CC=C1)C[C@@H]1CC[NH2+][C@@H]1[O-].CC(C)C[C@H](NC(=O)[C@@H]([N-]C(=O)[C@H](C)[N-]C(=O)C1=[NH+]OC(C)=C1)C(C)C)C(=O)N[C@H](CCC(=O)OCC1=CC=CC=C1)C[C@@H]1CC[NH2+][C@@H]1[O-].CC(C)C[C@H](NC(=O)[C@@H]([N-]C(=O)[C@H](C)[N-]C(=O)C1=[NH+]OC(C)=C1)C(C)C)C(=O)[N-][C@H](CCC(=O)OCC1=CC=CC=C1)C[C@@H]1CC[NH2+][C@@H]1O.CC(C)C[C@H](NC(=O)[C@@H]([N-]C(=O)[C@H](C)NC(=O)C1=[NH+]OC(C)=C1)C(C)C)C(=O)[N-][C@H](CCC(=O)OCC1=CC=CC=C1)C[C@@H]1CC[NH2+][C@@H]1[O-].CC(C)C[C@H](NC(=O)[C@@H](NC(=O)[C@H](C)[N-]C(=O)C1=[NH+]OC(C)=C1)C(C)C)C(=O)[N-][C@H](CCC(=O)OCC1=CC=CC=C1)C[C@@H]1CC[NH2+][C@@H]1[O-].CC(C)C[C@H]([N-]C(=O)[C@@H]([N-]C(=O)[C@H](C)[N-]C(=O)C1=[NH+]OC(C)=C1)C(C)C)C(=O)N[C@H](CCC(=O)OCC1=CC=CC=C1)C[C@@H]1CCN[C@@H]1[O-].CC(C)C[C@H]([N-]C(=O)[C@@H]([N-]C(=O)[C@H](C)[N-]C(=O)C1=[NH+]OC(C)=C1)C(C)C)C(=O)[N-][C@H](CCC(=O)OCC1=CC=CC=C1)C[C@@H]1CCN[C@@H]1O.CC(C)C[C@H]([N-]C(=O)[C@@H]([N-]C(=O)[C@H](C)NC(=O)C1=[NH+]OC(C)=C1)C(C)C)C(=O)[N-][C@H](CCC(=O)OCC1=CC=CC=C1)C[C@@H]1CCN[C@@H]1[O-].CC(C)C[C@H]([N-]C(=O)[C@@H](NC(=O)[C@H](C)[N-]C(=O)C1=[NH+]OC(C)=C1)C(C)C)C(=O)[N-][C@H](CCC(=O)OCC1=CC=CC=C1)C[C@@H]1CCN[C@@H]1[O-].CC(C)C[C@H](NC(=O)[C@@H]([N-]C(=O)[C@H](C)[N-]C(=O)C1=[NH+]OC(C)=C1)C(C)C)C(=O)[N-][C@H](CCC(=O)OCC1=CC=CC=C1)C[C@@H]1CCN[C@@H]1[O-].CC(C)C[C@H]([N-]C(=O)[C@@H]([N-]C(=O)[C@H](C)[N-]C(=O)C1=NOC(C)=C1)C(C)C)C(=O)N[C@H](CCC(=O)OCC1=CC=CC=C1)C[C@@H]1CC[NH2+][C@@H]1[O-].CC(C)C[C@H]([N-]C(=O)[C@@H]([N-]C(=O)[C@H](C)[N-]C(=O)C1=NOC(C)=C1)C(C)C)C(=O)[N-][C@H](CCC(=O)OCC1=CC=CC=C1)C[C@@H]1CC[NH2+][C@@H]1O.CC(C)C[C@H]([N-]C(=O)[C@@H]([N-]C(=O)[C@H](C)NC(=O)C1=NOC(C)=C1)C(C)C)C(=O)[N-][C@H](CCC(=O)OCC1=CC=CC=C1)C[C@@H]1CC[NH2+][C@@H]1[O-].CC(C)C[C@H]([N-]C(=O)[C@@H](NC(=O)[C@H](C)[N-]C(=O)C1=NOC(C)=C1)C(C)C)C(=O)[N-][C@H](CCC(=O)OCC1=CC=CC=C1)C[C@@H]1CC[NH2+][C@@H]1[O-].CC(C)C[C@H](NC(=O)[C@@H]([N-]C(=O)[C@H](C)[N-]C(=O)C1=NOC(C)=C1)C(C)C)C(=O)[N-][C@H](CCC(=O)OCC1=CC=CC=C1)C[C@@H]1CC[NH2+][C@@H]1[O-].CC(C)C[C@H]([N-]C(=O)[C@@H]([N-]C(=O)[C@H](C)[N-]C(=O)C1=NOC(C)=C1)C(C)C)C(=O)[N-][C@H](CCC(=O)OCC1=CC=CC=C1)C[C@@H]1CCN[C@@H]1[O-].CC(C)C[C@H]([N-]C(=O)[C@@H]([N-]C(=O)[C@H](C)[N-]C(=O)C1=[NH+]OC(C)=C1)C(C)C)C(=[OH+])N[C@H](CCC(=O)OCC1=CC=CC=C1)C[C@@H]1CC[NH2+][C@@H]1O.CC(C)C[C@H]([N-]C(=O)[C@@H]([N-]C(=O)[C@H](C)NC(=O)C1=[NH+]OC(C)=C1)C(C)C)C(=[OH+])N[C@H](CCC(=O)OCC1=CC=CC=C1)C[C@@H]1CC[NH2+][C@@H]1[O-].CC(C)C[C@H]([N-]C(=O)[C@@H]([N-]C(=O)[C@H](C)NC(=O)C1=[NH+]OC(C)=C1)C(C)C)C(=[OH+])[N-][C@H](CCC(=O)OCC1=CC=CC=C1)C[C@@H]1CC[NH2+][C@@H]1O.CC(C)C[C@H]([N-]C(=O)[C@@H](NC(=O)[C@H](C)[N-]C(=O)C1=[NH+]OC(C)=C1)C(C)C)C(=[OH+])N[C@H](CCC(=O)OCC1=CC=CC=C1)C[C@@H]1CC[NH2+][C@@H]1[O-].CC(C)C[C@H]([N-]C(=O)[C@@H](NC(=O)[C@H](C)[N-]C(=O)C1=[NH+]OC(C)=C1)C(C)C)C(=[OH+])[N-][C@H](CCC(=O)OCC1=CC=CC=C1)C[C@@H]1CC[NH2+][C@@H]1O.CC(C)C[C@H]([N-]C(=O)[C@@H](NC(=O)[C@H](C)NC(=O)C1=[NH+]OC(C)=C1)C(C)C)C(=[OH+])[N-][C@H](CCC(=O)OCC1=CC=CC=C1)C[C@@H]1CC[NH2+][C@@H]1[O-].CC(C)C[C@H](NC(=O)[C@@H]([N-]C(=O)[C@H](C)[N-]C(=O)C1=[NH+]OC(C)=C1)C(C)C)C(=[OH+])N[C@H](CCC(=O)OCC1=CC=CC=C1)C[C@@H]1CC[NH2+][C@@H]1[O-].CC(C)C[C@H](NC(=O)[C@@H]([N-]C(=O)[C@H](C)[N-]C(=O)C1=[NH+]OC(C)=C1)C(C)C)C(=[OH+])[N-][C@H](CCC(=O)OCC1=CC=CC=C1)C[C@@H]1CC[NH2+][C@@H]1O.CC(C)C[C@H](NC(=O)[C@@H]([N-]C(=O)[C@H](C)NC(=O)C1=[NH+]OC(C)=C1)C(C)C)C(=[OH+])[N-][C@H](CCC(=O)OCC1=CC=CC=C1)C[C@@H]1CC[NH2+][C@@H]1[O-].CC(C)C[C@H](NC(=O)[C@@H](NC(=O)[C@H](C)[N-]C(=O)C1=[NH+]OC(C)=C1)C(C)C)C(=[OH+])[N-][C@H](CCC(=O)OCC1=CC=CC=C1)C[C@@H]1CC[NH2+][C@@H]1[O-].CC(C)C[C@H]([N-]C(=O)[C@@H]([N-]C(=O)[C@H](C)[N-]C(=O)C1=[NH+]OC(C)=C1)C(C)C)C(=[OH+])N[C@H](CCC(=O)OCC1=CC=CC=C1)C[C@@H]1CCN[C@@H]1[O-].CC(C)C[C@H]([N-]C(=O)[C@@H]([N-]C(=O)[C@H](C)[N-]C(=O)C1=[NH+]OC(C)=C1)C(C)C)C(=[OH+])[N-][C@H](CCC(=O)OCC1=CC=CC=C1)C[C@@H]1CCN[C@@H]1O.CC(C)C[C@H]([N-]C(=O)[C@@H]([N-]C(=O)[C@H](C)NC(=O)C1=[NH+]OC(C)=C1)C(C)C)C(=[OH+])[N-][C@H](CCC(=O)OCC1=CC=CC=C1)C[C@@H]1CCN[C@@H]1[O-].CC(C)C[C@H]([N-]C(=O)[C@@H](NC(=O)[C@H](C)[N-]C(=O)C1=[NH+]OC(C)=C1)C(C)C)C(=[OH+])[N-][C@H](CCC(=O)OCC1=CC=CC=C1)C[C@@H]1CCN[C@@H]1[O-].CC(C)C[C@H](NC(=O)[C@@H]([N-]C(=O)[C@H](C)[N-]C(=O)C1=[NH+]OC(C)=C1)C(C)C)C(=[OH+])[N-][C@H](CCC(=O)OCC1=CC=CC=C1)C[C@@H]1CCN[C@@H]1[O-].CC(C)C[C@H]([N-]C(=O)[C@@H]([N-]C(=O)[C@H](C)[N-]C(=O)C1=NOC(C)=C1)C(C)C)C(=[OH+])N[C@H](CCC(=O)OCC1=CC=CC=C1)C[C@@H]1CC[NH2+][C@@H]1[O-].CC(C)C[C@H]([N-]C(=O)[C@@H]([N-]C(=O)[C@H](C)[N-]C(=O)C1=NOC(C)=C1)C(C)C)C(=[OH+])[N-][C@H](CCC(=O)OCC1=CC=CC=C1)C[C@@H]1CC[NH2+][C@@H]1O.CC(C)C[C@H]([N-]C(=O)[C@@H]([N-]C(=O)[C@H](C)NC(=O)C1=NOC(C)=C1)C(C)C)C(=[OH+])[N-][C@H](CCC(=O)OCC1=CC=CC=C1)C[C@@H]1CC[NH2+][C@@H]1[O-].CC(C)C[C@H]([N-]C(=O)[C@@H](NC(=O)[C@H](C)[N-]C(=O)C1=NOC(C)=C1)C(C)C)C(=[OH+])[N-][C@H](CCC(=O)OCC1=CC=CC=C1)C[C@@H]1CC[NH2+][C@@H]1[O-].CC(C)C[C@H](NC(=O)[C@@H]([N-]C(=O)[C@H](C)[N-]C(=O)C1=NOC(C)=C1)C(C)C)C(=[OH+])[N-][C@H](CCC(=O)OCC1=CC=CC=C1)C[C@@H]1CC[NH2+][C@@H]1[O-].CC(C)C[C@H]([N-]C(=O)[C@@H]([N-]C(=O)[C@H](C)[N-]C(=O)C1=NOC(C)=C1)C(C)C)C(=[OH+])[N-][C@H](CCC(=O)OCC1=CC=CC=C1)C[C@@H]1CCN[C@@H]1[O-].CC(C)C[C@H]([N-]C(=O)[C@@H]([N-]C(=O)[C@H](C)[N-]C(=O)C1=[NH+]OC(C)=C1)C(C)C)C(=O)N[C@H](CCC(=O)OCC1=CC=CC=C1)C[C@@H]1CC[NH2+][C@@H]1[O-].CC(C)C[C@H]([N-]C(=O)[C@@H]([N-]C(=O)[C@H](C)[N-]C(=O)C1=[NH+]OC(C)=C1)C(C)C)C(=O)[N-][C@H](CCC(=O)OCC1=CC=CC=C1)C[C@@H]1CC[NH2+][C@@H]1O.CC(C)C[C@H]([N-]C(=O)[C@@H]([N-]C(=O)[C@H](C)NC(=O)C1=[NH+]OC(C)=C1)C(C)C)C(=O)[N-][C@H](CCC(=O)OCC1=CC=CC=C1)C[C@@H]1CC[NH2+][C@@H]1[O-].CC(C)C[C@H]([N-]C(=O)[C@@H](NC(=O)[C@H](C)[N-]C(=O)C1=[NH+]OC(C)=C1)C(C)C)C(=O)[N-][C@H](CCC(=O)OCC1=CC=CC=C1)C[C@@H]1CC[NH2+][C@@H]1[O-].CC(C)C[C@H](NC(=O)[C@@H]([N-]C(=O)[C@H](C)[N-]C(=O)C1=[NH+]OC(C)=C1)C(C)C)C(=O)[N-][C@H](CCC(=O)OCC1=CC=CC=C1)C[C@@H]1CC[NH2+][C@@H]1[O-].CC(C)C[C@H]([N-]C(=O)[C@@H]([N-]C(=O)[C@H](C)[N-]C(=O)C1=[NH+]OC(C)=C1)C(C)C)C(=O)[N-][C@H](CCC(=O)OCC1=CC=CC=C1)C[C@@H]1CCN[C@@H]1[O-].CC(C)C[C@H]([N-]C(=O)[C@@H]([N-]C(=O)[C@H](C)[N-]C(=O)C1=NOC(C)=C1)C(C)C)C(=O)[N-][C@H](CCC(=O)OCC1=CC=CC=C1)C[C@@H]1CC[NH2+][C@@H]1[O-].CC(C)C[C@H]([N-]C(=O)[C@@H]([N-]C(=O)[C@H](C)[N-]C(=O)C1=[NH+]OC(C)=C1)C(C)C)C(=[OH+])N[C@H](CCC(=O)OCC1=CC=CC=C1)C[C@@H]1CC[NH2+][C@@H]1[O-].CC(C)C[C@H]([N-]C(=O)[C@@H]([N-]C(=O)[C@H](C)[N-]C(=O)C1=[NH+]OC(C)=C1)C(C)C)C(=[OH+])[N-][C@H](CCC(=O)OCC1=CC=CC=C1)C[C@@H]1CC[NH2+][C@@H]1O.CC(C)C[C@H]([N-]C(=O)[C@@H]([N-]C(=O)[C@H](C)NC(=O)C1=[NH+]OC(C)=C1)C(C)C)C(=[OH+])[N-][C@H](CCC(=O)OCC1=CC=CC=C1)C[C@@H]1CC[NH2+][C@@H]1[O-].CC(C)C[C@H]([N-]C(=O)[C@@H](NC(=O)[C@H](C)[N-]C(=O)C1=[NH+]OC(C)=C1)C(C)C)C(=[OH+])[N-][C@H](CCC(=O)OCC1=CC=CC=C1)C[C@@H]1CC[NH2+][C@@H]1[O-].CC(C)C[C@H](NC(=O)[C@@H]([N-]C(=O)[C@H](C)[N-]C(=O)C1=[NH+]OC(C)=C1)C(C)C)C(=[OH+])[N-][C@H](CCC(=O)OCC1=CC=CC=C1)C[C@@H]1CC[NH2+][C@@H]1[O-].CC(C)C[C@H]([N-]C(=O)[C@@H]([N-]C(=O)[C@H](C)[N-]C(=O)C1=[NH+]OC(C)=C1)C(C)C)C(=[OH+])[N-][C@H](CCC(=O)OCC1=CC=CC=C1)C[C@@H]1CCN[C@@H]1[O-].CC(C)C[C@H]([N-]C(=O)[C@@H]([N-]C(=O)[C@H](C)[N-]C(=O)C1=NOC(C)=C1)C(C)C)C(=[OH+])[N-][C@H](CCC(=O)OCC1=CC=CC=C1)C[C@@H]1CC[NH2+][C@@H]1[O-].CC(C)C[C@H]([N-]C(=O)[C@@H]([N-]C(=O)[C@H](C)[N-]C(=O)C1=[NH+]OC(C)=C1)C(C)C)C(=O)[N-][C@H](CCC(=O)OCC1=CC=CC=C1)C[C@@H]1CC[NH2+][C@@H]1[O-].CC(C)C[C@H]([N-]C(=O)[C@@H]([N-]C(=O)[C@H](C)[N-]C(=O)C1=[NH+]OC(C)=C1)C(C)C)C(=[OH+])[N-][C@H](CCC(=O)OCC1=CC=CC=C1)C[C@@H]1CC[NH2+][C@@H]1[O-]	
