@<TRIPOS>MOLECULE
Ligand_A
102 104 1
SMALL
USER_CHARGES
@<TRIPOS>ATOM
1	C1   -10.4250     3.4200    72.4470	C.2	1	noname	0.0659
2	C2    -9.9240     2.8570    73.6420	C.2	1	noname	0.0996
3	C3    -9.3450     1.4580    73.8060	C.3	1	noname	0.0590
4	O1   -10.0480     3.7550    74.5750	O.3	1	noname	-0.3066
5	N1   -10.5850     4.8610    74.1140	N.2	1	noname	-0.1225
6	C4   -10.8480     4.7380    72.8100	C.2	1	noname	0.1035
7	C5   -11.4750     5.7980    71.8910	C.2	1	noname	0.0574
8	O2   -11.0620     5.9430    70.7930	O.2	1	noname	-0.2817
9	N2   -12.5830     6.6250    72.3740	N.3	1	noname	-0.0581
10	C6   -13.1660     7.6250    71.4950	C.3	1	noname	0.0853
11	C7   -12.1150     8.7500    71.2410	C.2	1	noname	0.0492
12	O3   -11.4660     9.1590    72.1250	O.2	1	noname	-0.2901
13	C8   -14.3970     8.2180    72.1320	C.3	1	noname	-0.0408
14	N3   -11.9430     9.2810    69.9110	N.3	1	noname	-0.0663
15	C9   -10.9550    10.3360    69.6660	C.3	1	noname	0.0901
16	C10   -11.6630    11.6060    69.2730	C.2	1	noname	0.0494
17	O4   -12.3810    11.6170    68.3280	O.2	1	noname	-0.2899
18	C11   -10.0040     9.8950    68.5150	C.3	1	noname	-0.0227
19	C12    -9.1300    11.0860    68.0120	C.3	1	noname	-0.0608
20	C13    -9.1160     8.6870    68.9550	C.3	1	noname	-0.0608
21	N4   -11.4520    12.8590    70.0850	N.3	1	noname	-0.0663
22	C14   -12.1240    14.0960    69.7160	C.3	1	noname	0.0880
23	C15   -11.5820    14.5610    68.3340	C.2	1	noname	0.0469
24	O5   -10.4110    14.5700    68.1310	O.2	1	noname	-0.2906
25	C16   -11.8250    15.1550    70.7650	C.3	1	noname	-0.0265
26	C17   -13.0010    15.3970    71.7640	C.3	1	noname	-0.0451
27	C18   -13.8340    14.1000    72.0190	C.3	1	noname	-0.0627
28	C19   -12.4870    15.9820    73.0820	C.3	1	noname	-0.0627
29	C20   -11.9930    15.4250    65.9510	C.3	1	noname	0.0152
30	C21   -12.4990    16.8170    65.6470	C.3	1	noname	-0.0279
31	C22   -11.3650    17.8020    65.2890	C.3	1	noname	0.0352
32	C23   -10.1670    17.7640    66.2780	C.2	1	noname	0.1413
33	C24   -12.4560    14.4640    64.8580	C.3	1	noname	-0.0251
34	C25   -11.8270    13.0030    65.0480	C.3	1	noname	0.0445
35	C26   -10.2150    13.0410    64.7250	C.3	1	noname	0.0075
36	C27    -9.9250    12.0610    63.8360	C.3	1	noname	-0.0098
37	N5   -11.2380    11.5710    63.2750	N.4	1	noname	0.0196
38	C28   -12.3830    12.1480    64.2560	C.3	1	noname	0.1069
39	O6   -13.4400    12.7300    63.4910	O.3	1	noname	-0.3459
40	N6   -12.5240    14.9870    67.2600	N.3	1	noname	-0.0725
41	O7   -10.3540    17.7310    67.4510	O.2	1	noname	-0.2538
42	C29    -7.8300    17.5820    66.7590	C.3	1	noname	0.0815
43	O8    -8.8400    17.7820    65.7660	O.3	1	noname	-0.2037
44	C30    -5.7390    18.9300    67.3220	C.2	1	noname	-0.0497
45	C31    -5.0670    20.1380    67.5020	C.2	1	noname	-0.0585
46	C32    -5.7440    21.3470    67.3200	C.2	1	noname	-0.0611
47	C33    -7.0850    21.3390    66.9610	C.2	1	noname	-0.0585
48	C34    -7.7600    20.1340    66.7780	C.2	1	noname	-0.0497
49	C35    -7.0820    18.9270    66.9590	C.2	1	noname	-0.0434
50	H1   -10.4741     2.9451    71.4671	H	1	noname	0.0672
51	H2    -9.2492     1.2265    74.8668	H	1	noname	0.0301
52	H3   -10.0080     0.7328    73.3343	H	1	noname	0.0301
53	H4    -8.3634     1.4134    73.3343	H	1	noname	0.0301
54	H5   -12.9437     6.5061    73.3099	H	1	noname	0.1322
55	H6   -13.4575     7.1056    70.5821	H	1	noname	0.0563
56	H7   -14.3025     8.1725    73.2169	H	1	noname	0.0251
57	H8   -14.5030     9.2569    71.8198	H	1	noname	0.0251
58	H9   -15.2755     7.6533    71.8198	H	1	noname	0.0251
59	H10   -12.5093     8.9173    69.1580	H	1	noname	0.1319
60	H11   -10.4188    10.4987    70.6009	H	1	noname	0.0569
61	H12   -10.6258     9.5699    67.6808	H	1	noname	0.0318
62	H13    -8.7305    11.6303    68.8677	H	1	noname	0.0234
63	H14    -8.3070    10.7032    67.4085	H	1	noname	0.0234
64	H15    -9.7420    11.7563    67.4085	H	1	noname	0.0234
65	H16    -9.0809     8.6393    70.0434	H	1	noname	0.0234
66	H17    -9.5409     7.7624    68.5643	H	1	noname	0.0234
67	H18    -8.1067     8.8166    68.5643	H	1	noname	0.0234
68	H19   -10.8472    12.8700    70.8939	H	1	noname	0.1318
69	H20   -13.1946    13.8929    69.6905	H	1	noname	0.0566
70	H21   -10.9995    14.7539    71.3530	H	1	noname	0.0290
71	H22   -11.6974    16.0840    70.2093	H	1	noname	0.0290
72	H23   -13.6659    16.1371    71.3187	H	1	noname	0.0298
73	H24   -13.9371    13.9395    73.0922	H	1	noname	0.0233
74	H25   -14.8219    14.2088    71.5714	H	1	noname	0.0233
75	H26   -13.3242    13.2469    71.5714	H	1	noname	0.0233
76	H27   -12.2223    15.1712    73.7607	H	1	noname	0.0233
77	H28   -11.6072    16.5957    72.8885	H	1	noname	0.0233
78	H29   -13.2655    16.5957    73.5352	H	1	noname	0.0233
79	H30   -10.9049    15.4301    66.0148	H	1	noname	0.0469
80	H31   -13.1149    16.7175    64.7532	H	1	noname	0.0288
81	H32   -12.9404    17.1789    66.5756	H	1	noname	0.0288
82	H33   -10.9727    17.4649    64.3295	H	1	noname	0.0373
83	H34   -11.7985    18.7978    65.3811	H	1	noname	0.0373
84	H35   -13.5336    14.3701    64.9921	H	1	noname	0.0289
85	H36   -12.0556    14.8680    63.9282	H	1	noname	0.0289
86	H37   -12.1339    12.5402    65.9859	H	1	noname	0.0404
87	H38    -9.9629    13.9554    64.1880	H	1	noname	0.0339
88	H39    -9.6493    12.7563    65.6121	H	1	noname	0.0339
89	H40    -9.3584    12.5467    63.0415	H	1	noname	0.0941
90	H41    -9.4686    11.2626    64.4211	H	1	noname	0.0941
91	H42   -11.3417    12.0054    62.3691	H	1	noname	0.2589
92	H43   -11.2245    10.5642    63.3536	H	1	noname	0.2589
93	H44   -12.8716    11.4956    64.9797	H	1	noname	0.1330
94	H45   -14.1013    13.0941    64.0841	H	1	noname	0.2175
95	H46   -13.5214    14.9789    67.4191	H	1	noname	0.1313
96	H47    -8.3636    17.3443    67.6792	H	1	noname	0.0624
97	H48    -7.1338    16.8608    66.3309	H	1	noname	0.0624
98	H49    -5.2133    17.9860    67.4654	H	1	noname	0.0626
99	H50    -4.0142    20.1372    67.7845	H	1	noname	0.0622
100	H51    -5.2261    22.2961    67.4580	H	1	noname	0.0622
101	H52    -7.6106    22.2837    66.8221	H	1	noname	0.0622
102	H53    -8.8126    20.1356    66.4948	H	1	noname	0.0626
@<TRIPOS>BOND
1	1	2	2
2	1	6	1
3	2	3	1
4	2	4	1
5	4	5	1
6	5	6	2
7	6	7	1
8	7	8	2
9	7	9	1
10	9	10	1
11	10	11	1
12	10	13	1
13	11	12	2
14	11	14	1
15	14	15	1
16	15	16	1
17	15	18	1
18	16	17	2
19	16	21	1
20	18	19	1
21	18	20	1
22	21	22	1
23	22	23	1
24	22	25	1
25	23	24	2
26	23	40	1
27	25	26	1
28	26	27	1
29	26	28	1
30	29	30	1
31	29	33	1
32	29	40	1
33	30	31	1
34	31	32	1
35	32	41	2
36	32	43	1
37	33	34	1
38	34	35	1
39	34	38	1
40	35	36	1
41	36	37	1
42	37	38	1
43	38	39	1
44	42	43	1
45	42	49	1
46	44	45	2
47	44	49	1
48	45	46	1
49	46	47	2
50	47	48	1
51	48	49	2
52	1	50	1
53	3	51	1
54	3	52	1
55	3	53	1
56	9	54	1
57	10	55	1
58	13	56	1
59	13	57	1
60	13	58	1
61	14	59	1
62	15	60	1
63	18	61	1
64	19	62	1
65	19	63	1
66	19	64	1
67	20	65	1
68	20	66	1
69	20	67	1
70	21	68	1
71	22	69	1
72	25	70	1
73	25	71	1
74	26	72	1
75	27	73	1
76	27	74	1
77	27	75	1
78	28	76	1
79	28	77	1
80	28	78	1
81	29	79	1
82	30	80	1
83	30	81	1
84	31	82	1
85	31	83	1
86	33	84	1
87	33	85	1
88	34	86	1
89	35	87	1
90	35	88	1
91	36	89	1
92	36	90	1
93	37	91	1
94	37	92	1
95	38	93	1
96	39	94	1
97	40	95	1
98	42	96	1
99	42	97	1
100	44	98	1
101	45	99	1
102	46	100	1
103	47	101	1
104	48	102	1
@<TRIPOS>SUBSTRUCTURE
1	noname	1
CC(C)C[C@H](NC(=O)[C@@H](NC(=O)[C@H](C)NC(=O)C1=NOC(C)=C1)C(C)C)C(=O)N[C@H](CCC(=O)OCC1=CC=CC=C1)C[C@@H]1CCN[C@@H]1O.CC(C)C[C@H](NC(=O)[C@@H](NC(=O)[C@H](C)NC(=O)C1=NOC(C)=C1)C(C)C)C(=[OH+])N[C@H](CCC(=O)OCC1=CC=CC=C1)C[C@@H]1CCN[C@@H]1O.CC(C)C[C@H](NC(=O)[C@@H](NC(=O)[C@H](C)NC(=O)C1=[NH+]OC(C)=C1)C(C)C)C(=O)N[C@H](CCC(=O)OCC1=CC=CC=C1)C[C@@H]1CCN[C@@H]1O.CC(C)C[C@H](NC(=O)[C@@H](NC(=O)[C@H](C)NC(=O)C1=NOC(C)=C1)C(C)C)C(=O)N[C@H](CCC(=O)OCC1=CC=CC=C1)C[C@@H]1CC[NH2+][C@@H]1O.CC(C)C[C@H]([N-]C(=O)[C@@H](NC(=O)[C@H](C)NC(=O)C1=NOC(C)=C1)C(C)C)C(=O)N[C@H](CCC(=O)OCC1=CC=CC=C1)C[C@@H]1CCN[C@@H]1O.CC(C)C[C@H](NC(=O)[C@@H]([N-]C(=O)[C@H](C)NC(=O)C1=NOC(C)=C1)C(C)C)C(=O)N[C@H](CCC(=O)OCC1=CC=CC=C1)C[C@@H]1CCN[C@@H]1O.CC(C)C[C@H](NC(=O)[C@@H](NC(=O)[C@H](C)[N-]C(=O)C1=NOC(C)=C1)C(C)C)C(=O)N[C@H](CCC(=O)OCC1=CC=CC=C1)C[C@@H]1CCN[C@@H]1O.CC(C)C[C@H](NC(=O)[C@@H](NC(=O)[C@H](C)NC(=O)C1=NOC(C)=C1)C(C)C)C(=O)N[C@H](CCC(=O)OCC1=CC=CC=C1)C[C@@H]1CCN[C@@H]1[O-].CC(C)C[C@H](NC(=O)[C@@H](NC(=O)[C@H](C)NC(=O)C1=NOC(C)=C1)C(C)C)C(=O)[N-][C@H](CCC(=O)OCC1=CC=CC=C1)C[C@@H]1CCN[C@@H]1O.CC(C)C[C@H](NC(=O)[C@@H](NC(=O)[C@H](C)NC(=O)C1=[NH+]OC(C)=C1)C(C)C)C(=[OH+])N[C@H](CCC(=O)OCC1=CC=CC=C1)C[C@@H]1CCN[C@@H]1O.CC(C)C[C@H](NC(=O)[C@@H](NC(=O)[C@H](C)NC(=O)C1=NOC(C)=C1)C(C)C)C(=[OH+])N[C@H](CCC(=O)OCC1=CC=CC=C1)C[C@@H]1CC[NH2+][C@@H]1O.CC(C)C[C@H]([N-]C(=O)[C@@H](NC(=O)[C@H](C)NC(=O)C1=NOC(C)=C1)C(C)C)C(=[OH+])N[C@H](CCC(=O)OCC1=CC=CC=C1)C[C@@H]1CCN[C@@H]1O.CC(C)C[C@H](NC(=O)[C@@H]([N-]C(=O)[C@H](C)NC(=O)C1=NOC(C)=C1)C(C)C)C(=[OH+])N[C@H](CCC(=O)OCC1=CC=CC=C1)C[C@@H]1CCN[C@@H]1O.CC(C)C[C@H](NC(=O)[C@@H](NC(=O)[C@H](C)[N-]C(=O)C1=NOC(C)=C1)C(C)C)C(=[OH+])N[C@H](CCC(=O)OCC1=CC=CC=C1)C[C@@H]1CCN[C@@H]1O.CC(C)C[C@H](NC(=O)[C@@H](NC(=O)[C@H](C)NC(=O)C1=NOC(C)=C1)C(C)C)C(=[OH+])N[C@H](CCC(=O)OCC1=CC=CC=C1)C[C@@H]1CCN[C@@H]1[O-].CC(C)C[C@H](NC(=O)[C@@H](NC(=O)[C@H](C)NC(=O)C1=NOC(C)=C1)C(C)C)C(=[OH+])[N-][C@H](CCC(=O)OCC1=CC=CC=C1)C[C@@H]1CCN[C@@H]1O.CC(C)C[C@H](NC(=O)[C@@H](NC(=O)[C@H](C)NC(=O)C1=[NH+]OC(C)=C1)C(C)C)C(=O)N[C@H](CCC(=O)OCC1=CC=CC=C1)C[C@@H]1CC[NH2+][C@@H]1O.CC(C)C[C@H]([N-]C(=O)[C@@H](NC(=O)[C@H](C)NC(=O)C1=[NH+]OC(C)=C1)C(C)C)C(=O)N[C@H](CCC(=O)OCC1=CC=CC=C1)C[C@@H]1CCN[C@@H]1O.CC(C)C[C@H](NC(=O)[C@@H]([N-]C(=O)[C@H](C)NC(=O)C1=[NH+]OC(C)=C1)C(C)C)C(=O)N[C@H](CCC(=O)OCC1=CC=CC=C1)C[C@@H]1CCN[C@@H]1O.CC(C)C[C@H](NC(=O)[C@@H](NC(=O)[C@H](C)[N-]C(=O)C1=[NH+]OC(C)=C1)C(C)C)C(=O)N[C@H](CCC(=O)OCC1=CC=CC=C1)C[C@@H]1CCN[C@@H]1O.CC(C)C[C@H](NC(=O)[C@@H](NC(=O)[C@H](C)NC(=O)C1=[NH+]OC(C)=C1)C(C)C)C(=O)N[C@H](CCC(=O)OCC1=CC=CC=C1)C[C@@H]1CCN[C@@H]1[O-].CC(C)C[C@H](NC(=O)[C@@H](NC(=O)[C@H](C)NC(=O)C1=[NH+]OC(C)=C1)C(C)C)C(=O)[N-][C@H](CCC(=O)OCC1=CC=CC=C1)C[C@@H]1CCN[C@@H]1O.CC(C)C[C@H]([N-]C(=O)[C@@H](NC(=O)[C@H](C)NC(=O)C1=NOC(C)=C1)C(C)C)C(=O)N[C@H](CCC(=O)OCC1=CC=CC=C1)C[C@@H]1CC[NH2+][C@@H]1O.CC(C)C[C@H](NC(=O)[C@@H]([N-]C(=O)[C@H](C)NC(=O)C1=NOC(C)=C1)C(C)C)C(=O)N[C@H](CCC(=O)OCC1=CC=CC=C1)C[C@@H]1CC[NH2+][C@@H]1O.CC(C)C[C@H](NC(=O)[C@@H](NC(=O)[C@H](C)[N-]C(=O)C1=NOC(C)=C1)C(C)C)C(=O)N[C@H](CCC(=O)OCC1=CC=CC=C1)C[C@@H]1CC[NH2+][C@@H]1O.CC(C)C[C@H](NC(=O)[C@@H](NC(=O)[C@H](C)NC(=O)C1=NOC(C)=C1)C(C)C)C(=O)N[C@H](CCC(=O)OCC1=CC=CC=C1)C[C@@H]1CC[NH2+][C@@H]1[O-].CC(C)C[C@H](NC(=O)[C@@H](NC(=O)[C@H](C)NC(=O)C1=NOC(C)=C1)C(C)C)C(=O)[N-][C@H](CCC(=O)OCC1=CC=CC=C1)C[C@@H]1CC[NH2+][C@@H]1O.CC(C)C[C@H]([N-]C(=O)[C@@H]([N-]C(=O)[C@H](C)NC(=O)C1=NOC(C)=C1)C(C)C)C(=O)N[C@H](CCC(=O)OCC1=CC=CC=C1)C[C@@H]1CCN[C@@H]1O.CC(C)C[C@H]([N-]C(=O)[C@@H](NC(=O)[C@H](C)[N-]C(=O)C1=NOC(C)=C1)C(C)C)C(=O)N[C@H](CCC(=O)OCC1=CC=CC=C1)C[C@@H]1CCN[C@@H]1O.CC(C)C[C@H]([N-]C(=O)[C@@H](NC(=O)[C@H](C)NC(=O)C1=NOC(C)=C1)C(C)C)C(=O)N[C@H](CCC(=O)OCC1=CC=CC=C1)C[C@@H]1CCN[C@@H]1[O-].CC(C)C[C@H]([N-]C(=O)[C@@H](NC(=O)[C@H](C)NC(=O)C1=NOC(C)=C1)C(C)C)C(=O)[N-][C@H](CCC(=O)OCC1=CC=CC=C1)C[C@@H]1CCN[C@@H]1O.CC(C)C[C@H](NC(=O)[C@@H]([N-]C(=O)[C@H](C)[N-]C(=O)C1=NOC(C)=C1)C(C)C)C(=O)N[C@H](CCC(=O)OCC1=CC=CC=C1)C[C@@H]1CCN[C@@H]1O.CC(C)C[C@H](NC(=O)[C@@H]([N-]C(=O)[C@H](C)NC(=O)C1=NOC(C)=C1)C(C)C)C(=O)N[C@H](CCC(=O)OCC1=CC=CC=C1)C[C@@H]1CCN[C@@H]1[O-].CC(C)C[C@H](NC(=O)[C@@H]([N-]C(=O)[C@H](C)NC(=O)C1=NOC(C)=C1)C(C)C)C(=O)[N-][C@H](CCC(=O)OCC1=CC=CC=C1)C[C@@H]1CCN[C@@H]1O.CC(C)C[C@H](NC(=O)[C@@H](NC(=O)[C@H](C)[N-]C(=O)C1=NOC(C)=C1)C(C)C)C(=O)N[C@H](CCC(=O)OCC1=CC=CC=C1)C[C@@H]1CCN[C@@H]1[O-].CC(C)C[C@H](NC(=O)[C@@H](NC(=O)[C@H](C)[N-]C(=O)C1=NOC(C)=C1)C(C)C)C(=O)[N-][C@H](CCC(=O)OCC1=CC=CC=C1)C[C@@H]1CCN[C@@H]1O.CC(C)C[C@H](NC(=O)[C@@H](NC(=O)[C@H](C)NC(=O)C1=NOC(C)=C1)C(C)C)C(=O)[N-][C@H](CCC(=O)OCC1=CC=CC=C1)C[C@@H]1CCN[C@@H]1[O-].CC(C)C[C@H](NC(=O)[C@@H](NC(=O)[C@H](C)NC(=O)C1=[NH+]OC(C)=C1)C(C)C)C(=[OH+])N[C@H](CCC(=O)OCC1=CC=CC=C1)C[C@@H]1CC[NH2+][C@@H]1O.CC(C)C[C@H]([N-]C(=O)[C@@H](NC(=O)[C@H](C)NC(=O)C1=[NH+]OC(C)=C1)C(C)C)C(=[OH+])N[C@H](CCC(=O)OCC1=CC=CC=C1)C[C@@H]1CCN[C@@H]1O.CC(C)C[C@H](NC(=O)[C@@H]([N-]C(=O)[C@H](C)NC(=O)C1=[NH+]OC(C)=C1)C(C)C)C(=[OH+])N[C@H](CCC(=O)OCC1=CC=CC=C1)C[C@@H]1CCN[C@@H]1O.CC(C)C[C@H](NC(=O)[C@@H](NC(=O)[C@H](C)[N-]C(=O)C1=[NH+]OC(C)=C1)C(C)C)C(=[OH+])N[C@H](CCC(=O)OCC1=CC=CC=C1)C[C@@H]1CCN[C@@H]1O.CC(C)C[C@H](NC(=O)[C@@H](NC(=O)[C@H](C)NC(=O)C1=[NH+]OC(C)=C1)C(C)C)C(=[OH+])N[C@H](CCC(=O)OCC1=CC=CC=C1)C[C@@H]1CCN[C@@H]1[O-].CC(C)C[C@H](NC(=O)[C@@H](NC(=O)[C@H](C)NC(=O)C1=[NH+]OC(C)=C1)C(C)C)C(=[OH+])[N-][C@H](CCC(=O)OCC1=CC=CC=C1)C[C@@H]1CCN[C@@H]1O.CC(C)C[C@H]([N-]C(=O)[C@@H](NC(=O)[C@H](C)NC(=O)C1=NOC(C)=C1)C(C)C)C(=[OH+])N[C@H](CCC(=O)OCC1=CC=CC=C1)C[C@@H]1CC[NH2+][C@@H]1O.CC(C)C[C@H](NC(=O)[C@@H]([N-]C(=O)[C@H](C)NC(=O)C1=NOC(C)=C1)C(C)C)C(=[OH+])N[C@H](CCC(=O)OCC1=CC=CC=C1)C[C@@H]1CC[NH2+][C@@H]1O.CC(C)C[C@H](NC(=O)[C@@H](NC(=O)[C@H](C)[N-]C(=O)C1=NOC(C)=C1)C(C)C)C(=[OH+])N[C@H](CCC(=O)OCC1=CC=CC=C1)C[C@@H]1CC[NH2+][C@@H]1O.CC(C)C[C@H](NC(=O)[C@@H](NC(=O)[C@H](C)NC(=O)C1=NOC(C)=C1)C(C)C)C(=[OH+])N[C@H](CCC(=O)OCC1=CC=CC=C1)C[C@@H]1CC[NH2+][C@@H]1[O-].CC(C)C[C@H](NC(=O)[C@@H](NC(=O)[C@H](C)NC(=O)C1=NOC(C)=C1)C(C)C)C(=[OH+])[N-][C@H](CCC(=O)OCC1=CC=CC=C1)C[C@@H]1CC[NH2+][C@@H]1O.CC(C)C[C@H]([N-]C(=O)[C@@H]([N-]C(=O)[C@H](C)NC(=O)C1=NOC(C)=C1)C(C)C)C(=[OH+])N[C@H](CCC(=O)OCC1=CC=CC=C1)C[C@@H]1CCN[C@@H]1O.CC(C)C[C@H]([N-]C(=O)[C@@H](NC(=O)[C@H](C)[N-]C(=O)C1=NOC(C)=C1)C(C)C)C(=[OH+])N[C@H](CCC(=O)OCC1=CC=CC=C1)C[C@@H]1CCN[C@@H]1O.CC(C)C[C@H]([N-]C(=O)[C@@H](NC(=O)[C@H](C)NC(=O)C1=NOC(C)=C1)C(C)C)C(=[OH+])N[C@H](CCC(=O)OCC1=CC=CC=C1)C[C@@H]1CCN[C@@H]1[O-].CC(C)C[C@H]([N-]C(=O)[C@@H](NC(=O)[C@H](C)NC(=O)C1=NOC(C)=C1)C(C)C)C(=[OH+])[N-][C@H](CCC(=O)OCC1=CC=CC=C1)C[C@@H]1CCN[C@@H]1O.CC(C)C[C@H](NC(=O)[C@@H]([N-]C(=O)[C@H](C)[N-]C(=O)C1=NOC(C)=C1)C(C)C)C(=[OH+])N[C@H](CCC(=O)OCC1=CC=CC=C1)C[C@@H]1CCN[C@@H]1O.CC(C)C[C@H](NC(=O)[C@@H]([N-]C(=O)[C@H](C)NC(=O)C1=NOC(C)=C1)C(C)C)C(=[OH+])N[C@H](CCC(=O)OCC1=CC=CC=C1)C[C@@H]1CCN[C@@H]1[O-].CC(C)C[C@H](NC(=O)[C@@H]([N-]C(=O)[C@H](C)NC(=O)C1=NOC(C)=C1)C(C)C)C(=[OH+])[N-][C@H](CCC(=O)OCC1=CC=CC=C1)C[C@@H]1CCN[C@@H]1O.CC(C)C[C@H](NC(=O)[C@@H](NC(=O)[C@H](C)[N-]C(=O)C1=NOC(C)=C1)C(C)C)C(=[OH+])N[C@H](CCC(=O)OCC1=CC=CC=C1)C[C@@H]1CCN[C@@H]1[O-].CC(C)C[C@H](NC(=O)[C@@H](NC(=O)[C@H](C)[N-]C(=O)C1=NOC(C)=C1)C(C)C)C(=[OH+])[N-][C@H](CCC(=O)OCC1=CC=CC=C1)C[C@@H]1CCN[C@@H]1O.CC(C)C[C@H](NC(=O)[C@@H](NC(=O)[C@H](C)NC(=O)C1=NOC(C)=C1)C(C)C)C(=[OH+])[N-][C@H](CCC(=O)OCC1=CC=CC=C1)C[C@@H]1CCN[C@@H]1[O-].CC(C)C[C@H]([N-]C(=O)[C@@H](NC(=O)[C@H](C)NC(=O)C1=[NH+]OC(C)=C1)C(C)C)C(=O)N[C@H](CCC(=O)OCC1=CC=CC=C1)C[C@@H]1CC[NH2+][C@@H]1O.CC(C)C[C@H](NC(=O)[C@@H]([N-]C(=O)[C@H](C)NC(=O)C1=[NH+]OC(C)=C1)C(C)C)C(=O)N[C@H](CCC(=O)OCC1=CC=CC=C1)C[C@@H]1CC[NH2+][C@@H]1O.CC(C)C[C@H](NC(=O)[C@@H](NC(=O)[C@H](C)[N-]C(=O)C1=[NH+]OC(C)=C1)C(C)C)C(=O)N[C@H](CCC(=O)OCC1=CC=CC=C1)C[C@@H]1CC[NH2+][C@@H]1O.CC(C)C[C@H](NC(=O)[C@@H](NC(=O)[C@H](C)NC(=O)C1=[NH+]OC(C)=C1)C(C)C)C(=O)N[C@H](CCC(=O)OCC1=CC=CC=C1)C[C@@H]1CC[NH2+][C@@H]1[O-].CC(C)C[C@H](NC(=O)[C@@H](NC(=O)[C@H](C)NC(=O)C1=[NH+]OC(C)=C1)C(C)C)C(=O)[N-][C@H](CCC(=O)OCC1=CC=CC=C1)C[C@@H]1CC[NH2+][C@@H]1O.CC(C)C[C@H]([N-]C(=O)[C@@H]([N-]C(=O)[C@H](C)NC(=O)C1=[NH+]OC(C)=C1)C(C)C)C(=O)N[C@H](CCC(=O)OCC1=CC=CC=C1)C[C@@H]1CCN[C@@H]1O.CC(C)C[C@H]([N-]C(=O)[C@@H](NC(=O)[C@H](C)[N-]C(=O)C1=[NH+]OC(C)=C1)C(C)C)C(=O)N[C@H](CCC(=O)OCC1=CC=CC=C1)C[C@@H]1CCN[C@@H]1O.CC(C)C[C@H]([N-]C(=O)[C@@H](NC(=O)[C@H](C)NC(=O)C1=[NH+]OC(C)=C1)C(C)C)C(=O)N[C@H](CCC(=O)OCC1=CC=CC=C1)C[C@@H]1CCN[C@@H]1[O-].CC(C)C[C@H]([N-]C(=O)[C@@H](NC(=O)[C@H](C)NC(=O)C1=[NH+]OC(C)=C1)C(C)C)C(=O)[N-][C@H](CCC(=O)OCC1=CC=CC=C1)C[C@@H]1CCN[C@@H]1O.CC(C)C[C@H](NC(=O)[C@@H]([N-]C(=O)[C@H](C)[N-]C(=O)C1=[NH+]OC(C)=C1)C(C)C)C(=O)N[C@H](CCC(=O)OCC1=CC=CC=C1)C[C@@H]1CCN[C@@H]1O.CC(C)C[C@H](NC(=O)[C@@H]([N-]C(=O)[C@H](C)NC(=O)C1=[NH+]OC(C)=C1)C(C)C)C(=O)N[C@H](CCC(=O)OCC1=CC=CC=C1)C[C@@H]1CCN[C@@H]1[O-].CC(C)C[C@H](NC(=O)[C@@H]([N-]C(=O)[C@H](C)NC(=O)C1=[NH+]OC(C)=C1)C(C)C)C(=O)[N-][C@H](CCC(=O)OCC1=CC=CC=C1)C[C@@H]1CCN[C@@H]1O.CC(C)C[C@H](NC(=O)[C@@H](NC(=O)[C@H](C)[N-]C(=O)C1=[NH+]OC(C)=C1)C(C)C)C(=O)N[C@H](CCC(=O)OCC1=CC=CC=C1)C[C@@H]1CCN[C@@H]1[O-].CC(C)C[C@H](NC(=O)[C@@H](NC(=O)[C@H](C)[N-]C(=O)C1=[NH+]OC(C)=C1)C(C)C)C(=O)[N-][C@H](CCC(=O)OCC1=CC=CC=C1)C[C@@H]1CCN[C@@H]1O.CC(C)C[C@H](NC(=O)[C@@H](NC(=O)[C@H](C)NC(=O)C1=[NH+]OC(C)=C1)C(C)C)C(=O)[N-][C@H](CCC(=O)OCC1=CC=CC=C1)C[C@@H]1CCN[C@@H]1[O-].CC(C)C[C@H]([N-]C(=O)[C@@H]([N-]C(=O)[C@H](C)NC(=O)C1=NOC(C)=C1)C(C)C)C(=O)N[C@H](CCC(=O)OCC1=CC=CC=C1)C[C@@H]1CC[NH2+][C@@H]1O.CC(C)C[C@H]([N-]C(=O)[C@@H](NC(=O)[C@H](C)[N-]C(=O)C1=NOC(C)=C1)C(C)C)C(=O)N[C@H](CCC(=O)OCC1=CC=CC=C1)C[C@@H]1CC[NH2+][C@@H]1O.CC(C)C[C@H]([N-]C(=O)[C@@H](NC(=O)[C@H](C)NC(=O)C1=NOC(C)=C1)C(C)C)C(=O)N[C@H](CCC(=O)OCC1=CC=CC=C1)C[C@@H]1CC[NH2+][C@@H]1[O-].CC(C)C[C@H]([N-]C(=O)[C@@H](NC(=O)[C@H](C)NC(=O)C1=NOC(C)=C1)C(C)C)C(=O)[N-][C@H](CCC(=O)OCC1=CC=CC=C1)C[C@@H]1CC[NH2+][C@@H]1O.CC(C)C[C@H](NC(=O)[C@@H]([N-]C(=O)[C@H](C)[N-]C(=O)C1=NOC(C)=C1)C(C)C)C(=O)N[C@H](CCC(=O)OCC1=CC=CC=C1)C[C@@H]1CC[NH2+][C@@H]1O.CC(C)C[C@H](NC(=O)[C@@H]([N-]C(=O)[C@H](C)NC(=O)C1=NOC(C)=C1)C(C)C)C(=O)N[C@H](CCC(=O)OCC1=CC=CC=C1)C[C@@H]1CC[NH2+][C@@H]1[O-].CC(C)C[C@H](NC(=O)[C@@H]([N-]C(=O)[C@H](C)NC(=O)C1=NOC(C)=C1)C(C)C)C(=O)[N-][C@H](CCC(=O)OCC1=CC=CC=C1)C[C@@H]1CC[NH2+][C@@H]1O.CC(C)C[C@H](NC(=O)[C@@H](NC(=O)[C@H](C)[N-]C(=O)C1=NOC(C)=C1)C(C)C)C(=O)N[C@H](CCC(=O)OCC1=CC=CC=C1)C[C@@H]1CC[NH2+][C@@H]1[O-].CC(C)C[C@H](NC(=O)[C@@H](NC(=O)[C@H](C)[N-]C(=O)C1=NOC(C)=C1)C(C)C)C(=O)[N-][C@H](CCC(=O)OCC1=CC=CC=C1)C[C@@H]1CC[NH2+][C@@H]1O.CC(C)C[C@H](NC(=O)[C@@H](NC(=O)[C@H](C)NC(=O)C1=NOC(C)=C1)C(C)C)C(=O)[N-][C@H](CCC(=O)OCC1=CC=CC=C1)C[C@@H]1CC[NH2+][C@@H]1[O-].CC(C)C[C@H]([N-]C(=O)[C@@H]([N-]C(=O)[C@H](C)[N-]C(=O)C1=NOC(C)=C1)C(C)C)C(=O)N[C@H](CCC(=O)OCC1=CC=CC=C1)C[C@@H]1CCN[C@@H]1O.CC(C)C[C@H]([N-]C(=O)[C@@H]([N-]C(=O)[C@H](C)NC(=O)C1=NOC(C)=C1)C(C)C)C(=O)N[C@H](CCC(=O)OCC1=CC=CC=C1)C[C@@H]1CCN[C@@H]1[O-].CC(C)C[C@H]([N-]C(=O)[C@@H]([N-]C(=O)[C@H](C)NC(=O)C1=NOC(C)=C1)C(C)C)C(=O)[N-][C@H](CCC(=O)OCC1=CC=CC=C1)C[C@@H]1CCN[C@@H]1O.CC(C)C[C@H]([N-]C(=O)[C@@H](NC(=O)[C@H](C)[N-]C(=O)C1=NOC(C)=C1)C(C)C)C(=O)N[C@H](CCC(=O)OCC1=CC=CC=C1)C[C@@H]1CCN[C@@H]1[O-].CC(C)C[C@H]([N-]C(=O)[C@@H](NC(=O)[C@H](C)[N-]C(=O)C1=NOC(C)=C1)C(C)C)C(=O)[N-][C@H](CCC(=O)OCC1=CC=CC=C1)C[C@@H]1CCN[C@@H]1O.CC(C)C[C@H]([N-]C(=O)[C@@H](NC(=O)[C@H](C)NC(=O)C1=NOC(C)=C1)C(C)C)C(=O)[N-][C@H](CCC(=O)OCC1=CC=CC=C1)C[C@@H]1CCN[C@@H]1[O-].CC(C)C[C@H](NC(=O)[C@@H]([N-]C(=O)[C@H](C)[N-]C(=O)C1=NOC(C)=C1)C(C)C)C(=O)N[C@H](CCC(=O)OCC1=CC=CC=C1)C[C@@H]1CCN[C@@H]1[O-].CC(C)C[C@H](NC(=O)[C@@H]([N-]C(=O)[C@H](C)[N-]C(=O)C1=NOC(C)=C1)C(C)C)C(=O)[N-][C@H](CCC(=O)OCC1=CC=CC=C1)C[C@@H]1CCN[C@@H]1O.CC(C)C[C@H](NC(=O)[C@@H]([N-]C(=O)[C@H](C)NC(=O)C1=NOC(C)=C1)C(C)C)C(=O)[N-][C@H](CCC(=O)OCC1=CC=CC=C1)C[C@@H]1CCN[C@@H]1[O-].CC(C)C[C@H](NC(=O)[C@@H](NC(=O)[C@H](C)[N-]C(=O)C1=NOC(C)=C1)C(C)C)C(=O)[N-][C@H](CCC(=O)OCC1=CC=CC=C1)C[C@@H]1CCN[C@@H]1[O-].CC(C)C[C@H]([N-]C(=O)[C@@H](NC(=O)[C@H](C)NC(=O)C1=[NH+]OC(C)=C1)C(C)C)C(=[OH+])N[C@H](CCC(=O)OCC1=CC=CC=C1)C[C@@H]1CC[NH2+][C@@H]1O.CC(C)C[C@H](NC(=O)[C@@H]([N-]C(=O)[C@H](C)NC(=O)C1=[NH+]OC(C)=C1)C(C)C)C(=[OH+])N[C@H](CCC(=O)OCC1=CC=CC=C1)C[C@@H]1CC[NH2+][C@@H]1O.CC(C)C[C@H](NC(=O)[C@@H](NC(=O)[C@H](C)[N-]C(=O)C1=[NH+]OC(C)=C1)C(C)C)C(=[OH+])N[C@H](CCC(=O)OCC1=CC=CC=C1)C[C@@H]1CC[NH2+][C@@H]1O.CC(C)C[C@H](NC(=O)[C@@H](NC(=O)[C@H](C)NC(=O)C1=[NH+]OC(C)=C1)C(C)C)C(=[OH+])N[C@H](CCC(=O)OCC1=CC=CC=C1)C[C@@H]1CC[NH2+][C@@H]1[O-].CC(C)C[C@H](NC(=O)[C@@H](NC(=O)[C@H](C)NC(=O)C1=[NH+]OC(C)=C1)C(C)C)C(=[OH+])[N-][C@H](CCC(=O)OCC1=CC=CC=C1)C[C@@H]1CC[NH2+][C@@H]1O.CC(C)C[C@H]([N-]C(=O)[C@@H]([N-]C(=O)[C@H](C)NC(=O)C1=[NH+]OC(C)=C1)C(C)C)C(=[OH+])N[C@H](CCC(=O)OCC1=CC=CC=C1)C[C@@H]1CCN[C@@H]1O.CC(C)C[C@H]([N-]C(=O)[C@@H](NC(=O)[C@H](C)[N-]C(=O)C1=[NH+]OC(C)=C1)C(C)C)C(=[OH+])N[C@H](CCC(=O)OCC1=CC=CC=C1)C[C@@H]1CCN[C@@H]1O.CC(C)C[C@H]([N-]C(=O)[C@@H](NC(=O)[C@H](C)NC(=O)C1=[NH+]OC(C)=C1)C(C)C)C(=[OH+])N[C@H](CCC(=O)OCC1=CC=CC=C1)C[C@@H]1CCN[C@@H]1[O-].CC(C)C[C@H]([N-]C(=O)[C@@H](NC(=O)[C@H](C)NC(=O)C1=[NH+]OC(C)=C1)C(C)C)C(=[OH+])[N-][C@H](CCC(=O)OCC1=CC=CC=C1)C[C@@H]1CCN[C@@H]1O.CC(C)C[C@H](NC(=O)[C@@H]([N-]C(=O)[C@H](C)[N-]C(=O)C1=[NH+]OC(C)=C1)C(C)C)C(=[OH+])N[C@H](CCC(=O)OCC1=CC=CC=C1)C[C@@H]1CCN[C@@H]1O.CC(C)C[C@H](NC(=O)[C@@H]([N-]C(=O)[C@H](C)NC(=O)C1=[NH+]OC(C)=C1)C(C)C)C(=[OH+])N[C@H](CCC(=O)OCC1=CC=CC=C1)C[C@@H]1CCN[C@@H]1[O-].CC(C)C[C@H](NC(=O)[C@@H]([N-]C(=O)[C@H](C)NC(=O)C1=[NH+]OC(C)=C1)C(C)C)C(=[OH+])[N-][C@H](CCC(=O)OCC1=CC=CC=C1)C[C@@H]1CCN[C@@H]1O.CC(C)C[C@H](NC(=O)[C@@H](NC(=O)[C@H](C)[N-]C(=O)C1=[NH+]OC(C)=C1)C(C)C)C(=[OH+])N[C@H](CCC(=O)OCC1=CC=CC=C1)C[C@@H]1CCN[C@@H]1[O-].CC(C)C[C@H](NC(=O)[C@@H](NC(=O)[C@H](C)[N-]C(=O)C1=[NH+]OC(C)=C1)C(C)C)C(=[OH+])[N-][C@H](CCC(=O)OCC1=CC=CC=C1)C[C@@H]1CCN[C@@H]1O.CC(C)C[C@H](NC(=O)[C@@H](NC(=O)[C@H](C)NC(=O)C1=[NH+]OC(C)=C1)C(C)C)C(=[OH+])[N-][C@H](CCC(=O)OCC1=CC=CC=C1)C[C@@H]1CCN[C@@H]1[O-].CC(C)C[C@H]([N-]C(=O)[C@@H]([N-]C(=O)[C@H](C)NC(=O)C1=NOC(C)=C1)C(C)C)C(=[OH+])N[C@H](CCC(=O)OCC1=CC=CC=C1)C[C@@H]1CC[NH2+][C@@H]1O.CC(C)C[C@H]([N-]C(=O)[C@@H](NC(=O)[C@H](C)[N-]C(=O)C1=NOC(C)=C1)C(C)C)C(=[OH+])N[C@H](CCC(=O)OCC1=CC=CC=C1)C[C@@H]1CC[NH2+][C@@H]1O.CC(C)C[C@H]([N-]C(=O)[C@@H](NC(=O)[C@H](C)NC(=O)C1=NOC(C)=C1)C(C)C)C(=[OH+])N[C@H](CCC(=O)OCC1=CC=CC=C1)C[C@@H]1CC[NH2+][C@@H]1[O-].CC(C)C[C@H]([N-]C(=O)[C@@H](NC(=O)[C@H](C)NC(=O)C1=NOC(C)=C1)C(C)C)C(=[OH+])[N-][C@H](CCC(=O)OCC1=CC=CC=C1)C[C@@H]1CC[NH2+][C@@H]1O.CC(C)C[C@H](NC(=O)[C@@H]([N-]C(=O)[C@H](C)[N-]C(=O)C1=NOC(C)=C1)C(C)C)C(=[OH+])N[C@H](CCC(=O)OCC1=CC=CC=C1)C[C@@H]1CC[NH2+][C@@H]1O.CC(C)C[C@H](NC(=O)[C@@H]([N-]C(=O)[C@H](C)NC(=O)C1=NOC(C)=C1)C(C)C)C(=[OH+])N[C@H](CCC(=O)OCC1=CC=CC=C1)C[C@@H]1CC[NH2+][C@@H]1[O-].CC(C)C[C@H](NC(=O)[C@@H]([N-]C(=O)[C@H](C)NC(=O)C1=NOC(C)=C1)C(C)C)C(=[OH+])[N-][C@H](CCC(=O)OCC1=CC=CC=C1)C[C@@H]1CC[NH2+][C@@H]1O.CC(C)C[C@H](NC(=O)[C@@H](NC(=O)[C@H](C)[N-]C(=O)C1=NOC(C)=C1)C(C)C)C(=[OH+])N[C@H](CCC(=O)OCC1=CC=CC=C1)C[C@@H]1CC[NH2+][C@@H]1[O-].CC(C)C[C@H](NC(=O)[C@@H](NC(=O)[C@H](C)[N-]C(=O)C1=NOC(C)=C1)C(C)C)C(=[OH+])[N-][C@H](CCC(=O)OCC1=CC=CC=C1)C[C@@H]1CC[NH2+][C@@H]1O.CC(C)C[C@H](NC(=O)[C@@H](NC(=O)[C@H](C)NC(=O)C1=NOC(C)=C1)C(C)C)C(=[OH+])[N-][C@H](CCC(=O)OCC1=CC=CC=C1)C[C@@H]1CC[NH2+][C@@H]1[O-].CC(C)C[C@H]([N-]C(=O)[C@@H]([N-]C(=O)[C@H](C)[N-]C(=O)C1=NOC(C)=C1)C(C)C)C(=[OH+])N[C@H](CCC(=O)OCC1=CC=CC=C1)C[C@@H]1CCN[C@@H]1O.CC(C)C[C@H]([N-]C(=O)[C@@H]([N-]C(=O)[C@H](C)NC(=O)C1=NOC(C)=C1)C(C)C)C(=[OH+])N[C@H](CCC(=O)OCC1=CC=CC=C1)C[C@@H]1CCN[C@@H]1[O-].CC(C)C[C@H]([N-]C(=O)[C@@H]([N-]C(=O)[C@H](C)NC(=O)C1=NOC(C)=C1)C(C)C)C(=[OH+])[N-][C@H](CCC(=O)OCC1=CC=CC=C1)C[C@@H]1CCN[C@@H]1O.CC(C)C[C@H]([N-]C(=O)[C@@H](NC(=O)[C@H](C)[N-]C(=O)C1=NOC(C)=C1)C(C)C)C(=[OH+])N[C@H](CCC(=O)OCC1=CC=CC=C1)C[C@@H]1CCN[C@@H]1[O-].CC(C)C[C@H]([N-]C(=O)[C@@H](NC(=O)[C@H](C)[N-]C(=O)C1=NOC(C)=C1)C(C)C)C(=[OH+])[N-][C@H](CCC(=O)OCC1=CC=CC=C1)C[C@@H]1CCN[C@@H]1O.CC(C)C[C@H]([N-]C(=O)[C@@H](NC(=O)[C@H](C)NC(=O)C1=NOC(C)=C1)C(C)C)C(=[OH+])[N-][C@H](CCC(=O)OCC1=CC=CC=C1)C[C@@H]1CCN[C@@H]1[O-].CC(C)C[C@H](NC(=O)[C@@H]([N-]C(=O)[C@H](C)[N-]C(=O)C1=NOC(C)=C1)C(C)C)C(=[OH+])N[C@H](CCC(=O)OCC1=CC=CC=C1)C[C@@H]1CCN[C@@H]1[O-].CC(C)C[C@H](NC(=O)[C@@H]([N-]C(=O)[C@H](C)[N-]C(=O)C1=NOC(C)=C1)C(C)C)C(=[OH+])[N-][C@H](CCC(=O)OCC1=CC=CC=C1)C[C@@H]1CCN[C@@H]1O.CC(C)C[C@H](NC(=O)[C@@H]([N-]C(=O)[C@H](C)NC(=O)C1=NOC(C)=C1)C(C)C)C(=[OH+])[N-][C@H](CCC(=O)OCC1=CC=CC=C1)C[C@@H]1CCN[C@@H]1[O-].CC(C)C[C@H](NC(=O)[C@@H](NC(=O)[C@H](C)[N-]C(=O)C1=NOC(C)=C1)C(C)C)C(=[OH+])[N-][C@H](CCC(=O)OCC1=CC=CC=C1)C[C@@H]1CCN[C@@H]1[O-].CC(C)C[C@H]([N-]C(=O)[C@@H]([N-]C(=O)[C@H](C)NC(=O)C1=[NH+]OC(C)=C1)C(C)C)C(=O)N[C@H](CCC(=O)OCC1=CC=CC=C1)C[C@@H]1CC[NH2+][C@@H]1O.CC(C)C[C@H]([N-]C(=O)[C@@H](NC(=O)[C@H](C)[N-]C(=O)C1=[NH+]OC(C)=C1)C(C)C)C(=O)N[C@H](CCC(=O)OCC1=CC=CC=C1)C[C@@H]1CC[NH2+][C@@H]1O.CC(C)C[C@H]([N-]C(=O)[C@@H](NC(=O)[C@H](C)NC(=O)C1=[NH+]OC(C)=C1)C(C)C)C(=O)N[C@H](CCC(=O)OCC1=CC=CC=C1)C[C@@H]1CC[NH2+][C@@H]1[O-].CC(C)C[C@H]([N-]C(=O)[C@@H](NC(=O)[C@H](C)NC(=O)C1=[NH+]OC(C)=C1)C(C)C)C(=O)[N-][C@H](CCC(=O)OCC1=CC=CC=C1)C[C@@H]1CC[NH2+][C@@H]1O.CC(C)C[C@H](NC(=O)[C@@H]([N-]C(=O)[C@H](C)[N-]C(=O)C1=[NH+]OC(C)=C1)C(C)C)C(=O)N[C@H](CCC(=O)OCC1=CC=CC=C1)C[C@@H]1CC[NH2+][C@@H]1O.CC(C)C[C@H](NC(=O)[C@@H]([N-]C(=O)[C@H](C)NC(=O)C1=[NH+]OC(C)=C1)C(C)C)C(=O)N[C@H](CCC(=O)OCC1=CC=CC=C1)C[C@@H]1CC[NH2+][C@@H]1[O-].CC(C)C[C@H](NC(=O)[C@@H]([N-]C(=O)[C@H](C)NC(=O)C1=[NH+]OC(C)=C1)C(C)C)C(=O)[N-][C@H](CCC(=O)OCC1=CC=CC=C1)C[C@@H]1CC[NH2+][C@@H]1O.CC(C)C[C@H](NC(=O)[C@@H](NC(=O)[C@H](C)[N-]C(=O)C1=[NH+]OC(C)=C1)C(C)C)C(=O)N[C@H](CCC(=O)OCC1=CC=CC=C1)C[C@@H]1CC[NH2+][C@@H]1[O-].CC(C)C[C@H](NC(=O)[C@@H](NC(=O)[C@H](C)[N-]C(=O)C1=[NH+]OC(C)=C1)C(C)C)C(=O)[N-][C@H](CCC(=O)OCC1=CC=CC=C1)C[C@@H]1CC[NH2+][C@@H]1O.CC(C)C[C@H](NC(=O)[C@@H](NC(=O)[C@H](C)NC(=O)C1=[NH+]OC(C)=C1)C(C)C)C(=O)[N-][C@H](CCC(=O)OCC1=CC=CC=C1)C[C@@H]1CC[NH2+][C@@H]1[O-].CC(C)C[C@H]([N-]C(=O)[C@@H]([N-]C(=O)[C@H](C)[N-]C(=O)C1=[NH+]OC(C)=C1)C(C)C)C(=O)N[C@H](CCC(=O)OCC1=CC=CC=C1)C[C@@H]1CCN[C@@H]1O.CC(C)C[C@H]([N-]C(=O)[C@@H]([N-]C(=O)[C@H](C)NC(=O)C1=[NH+]OC(C)=C1)C(C)C)C(=O)N[C@H](CCC(=O)OCC1=CC=CC=C1)C[C@@H]1CCN[C@@H]1[O-].CC(C)C[C@H]([N-]C(=O)[C@@H]([N-]C(=O)[C@H](C)NC(=O)C1=[NH+]OC(C)=C1)C(C)C)C(=O)[N-][C@H](CCC(=O)OCC1=CC=CC=C1)C[C@@H]1CCN[C@@H]1O.CC(C)C[C@H]([N-]C(=O)[C@@H](NC(=O)[C@H](C)[N-]C(=O)C1=[NH+]OC(C)=C1)C(C)C)C(=O)N[C@H](CCC(=O)OCC1=CC=CC=C1)C[C@@H]1CCN[C@@H]1[O-].CC(C)C[C@H]([N-]C(=O)[C@@H](NC(=O)[C@H](C)[N-]C(=O)C1=[NH+]OC(C)=C1)C(C)C)C(=O)[N-][C@H](CCC(=O)OCC1=CC=CC=C1)C[C@@H]1CCN[C@@H]1O.CC(C)C[C@H]([N-]C(=O)[C@@H](NC(=O)[C@H](C)NC(=O)C1=[NH+]OC(C)=C1)C(C)C)C(=O)[N-][C@H](CCC(=O)OCC1=CC=CC=C1)C[C@@H]1CCN[C@@H]1[O-].CC(C)C[C@H](NC(=O)[C@@H]([N-]C(=O)[C@H](C)[N-]C(=O)C1=[NH+]OC(C)=C1)C(C)C)C(=O)N[C@H](CCC(=O)OCC1=CC=CC=C1)C[C@@H]1CCN[C@@H]1[O-].CC(C)C[C@H](NC(=O)[C@@H]([N-]C(=O)[C@H](C)[N-]C(=O)C1=[NH+]OC(C)=C1)C(C)C)C(=O)[N-][C@H](CCC(=O)OCC1=CC=CC=C1)C[C@@H]1CCN[C@@H]1O.CC(C)C[C@H](NC(=O)[C@@H]([N-]C(=O)[C@H](C)NC(=O)C1=[NH+]OC(C)=C1)C(C)C)C(=O)[N-][C@H](CCC(=O)OCC1=CC=CC=C1)C[C@@H]1CCN[C@@H]1[O-].CC(C)C[C@H](NC(=O)[C@@H](NC(=O)[C@H](C)[N-]C(=O)C1=[NH+]OC(C)=C1)C(C)C)C(=O)[N-][C@H](CCC(=O)OCC1=CC=CC=C1)C[C@@H]1CCN[C@@H]1[O-].CC(C)C[C@H]([N-]C(=O)[C@@H]([N-]C(=O)[C@H](C)[N-]C(=O)C1=NOC(C)=C1)C(C)C)C(=O)N[C@H](CCC(=O)OCC1=CC=CC=C1)C[C@@H]1CC[NH2+][C@@H]1O.CC(C)C[C@H]([N-]C(=O)[C@@H]([N-]C(=O)[C@H](C)NC(=O)C1=NOC(C)=C1)C(C)C)C(=O)N[C@H](CCC(=O)OCC1=CC=CC=C1)C[C@@H]1CC[NH2+][C@@H]1[O-].CC(C)C[C@H]([N-]C(=O)[C@@H]([N-]C(=O)[C@H](C)NC(=O)C1=NOC(C)=C1)C(C)C)C(=O)[N-][C@H](CCC(=O)OCC1=CC=CC=C1)C[C@@H]1CC[NH2+][C@@H]1O.CC(C)C[C@H]([N-]C(=O)[C@@H](NC(=O)[C@H](C)[N-]C(=O)C1=NOC(C)=C1)C(C)C)C(=O)N[C@H](CCC(=O)OCC1=CC=CC=C1)C[C@@H]1CC[NH2+][C@@H]1[O-].CC(C)C[C@H]([N-]C(=O)[C@@H](NC(=O)[C@H](C)[N-]C(=O)C1=NOC(C)=C1)C(C)C)C(=O)[N-][C@H](CCC(=O)OCC1=CC=CC=C1)C[C@@H]1CC[NH2+][C@@H]1O.CC(C)C[C@H]([N-]C(=O)[C@@H](NC(=O)[C@H](C)NC(=O)C1=NOC(C)=C1)C(C)C)C(=O)[N-][C@H](CCC(=O)OCC1=CC=CC=C1)C[C@@H]1CC[NH2+][C@@H]1[O-].CC(C)C[C@H](NC(=O)[C@@H]([N-]C(=O)[C@H](C)[N-]C(=O)C1=NOC(C)=C1)C(C)C)C(=O)N[C@H](CCC(=O)OCC1=CC=CC=C1)C[C@@H]1CC[NH2+][C@@H]1[O-].CC(C)C[C@H](NC(=O)[C@@H]([N-]C(=O)[C@H](C)[N-]C(=O)C1=NOC(C)=C1)C(C)C)C(=O)[N-][C@H](CCC(=O)OCC1=CC=CC=C1)C[C@@H]1CC[NH2+][C@@H]1O.CC(C)C[C@H](NC(=O)[C@@H]([N-]C(=O)[C@H](C)NC(=O)C1=NOC(C)=C1)C(C)C)C(=O)[N-][C@H](CCC(=O)OCC1=CC=CC=C1)C[C@@H]1CC[NH2+][C@@H]1[O-].CC(C)C[C@H](NC(=O)[C@@H](NC(=O)[C@H](C)[N-]C(=O)C1=NOC(C)=C1)C(C)C)C(=O)[N-][C@H](CCC(=O)OCC1=CC=CC=C1)C[C@@H]1CC[NH2+][C@@H]1[O-].CC(C)C[C@H]([N-]C(=O)[C@@H]([N-]C(=O)[C@H](C)[N-]C(=O)C1=NOC(C)=C1)C(C)C)C(=O)N[C@H](CCC(=O)OCC1=CC=CC=C1)C[C@@H]1CCN[C@@H]1[O-].CC(C)C[C@H]([N-]C(=O)[C@@H]([N-]C(=O)[C@H](C)[N-]C(=O)C1=NOC(C)=C1)C(C)C)C(=O)[N-][C@H](CCC(=O)OCC1=CC=CC=C1)C[C@@H]1CCN[C@@H]1O.CC(C)C[C@H]([N-]C(=O)[C@@H]([N-]C(=O)[C@H](C)NC(=O)C1=NOC(C)=C1)C(C)C)C(=O)[N-][C@H](CCC(=O)OCC1=CC=CC=C1)C[C@@H]1CCN[C@@H]1[O-].CC(C)C[C@H]([N-]C(=O)[C@@H](NC(=O)[C@H](C)[N-]C(=O)C1=NOC(C)=C1)C(C)C)C(=O)[N-][C@H](CCC(=O)OCC1=CC=CC=C1)C[C@@H]1CCN[C@@H]1[O-].CC(C)C[C@H](NC(=O)[C@@H]([N-]C(=O)[C@H](C)[N-]C(=O)C1=NOC(C)=C1)C(C)C)C(=O)[N-][C@H](CCC(=O)OCC1=CC=CC=C1)C[C@@H]1CCN[C@@H]1[O-].CC(C)C[C@H]([N-]C(=O)[C@@H]([N-]C(=O)[C@H](C)NC(=O)C1=[NH+]OC(C)=C1)C(C)C)C(=[OH+])N[C@H](CCC(=O)OCC1=CC=CC=C1)C[C@@H]1CC[NH2+][C@@H]1O.CC(C)C[C@H]([N-]C(=O)[C@@H](NC(=O)[C@H](C)[N-]C(=O)C1=[NH+]OC(C)=C1)C(C)C)C(=[OH+])N[C@H](CCC(=O)OCC1=CC=CC=C1)C[C@@H]1CC[NH2+][C@@H]1O.CC(C)C[C@H]([N-]C(=O)[C@@H](NC(=O)[C@H](C)NC(=O)C1=[NH+]OC(C)=C1)C(C)C)C(=[OH+])N[C@H](CCC(=O)OCC1=CC=CC=C1)C[C@@H]1CC[NH2+][C@@H]1[O-].CC(C)C[C@H]([N-]C(=O)[C@@H](NC(=O)[C@H](C)NC(=O)C1=[NH+]OC(C)=C1)C(C)C)C(=[OH+])[N-][C@H](CCC(=O)OCC1=CC=CC=C1)C[C@@H]1CC[NH2+][C@@H]1O.CC(C)C[C@H](NC(=O)[C@@H]([N-]C(=O)[C@H](C)[N-]C(=O)C1=[NH+]OC(C)=C1)C(C)C)C(=[OH+])N[C@H](CCC(=O)OCC1=CC=CC=C1)C[C@@H]1CC[NH2+][C@@H]1O.CC(C)C[C@H](NC(=O)[C@@H]([N-]C(=O)[C@H](C)NC(=O)C1=[NH+]OC(C)=C1)C(C)C)C(=[OH+])N[C@H](CCC(=O)OCC1=CC=CC=C1)C[C@@H]1CC[NH2+][C@@H]1[O-].CC(C)C[C@H](NC(=O)[C@@H]([N-]C(=O)[C@H](C)NC(=O)C1=[NH+]OC(C)=C1)C(C)C)C(=[OH+])[N-][C@H](CCC(=O)OCC1=CC=CC=C1)C[C@@H]1CC[NH2+][C@@H]1O.CC(C)C[C@H](NC(=O)[C@@H](NC(=O)[C@H](C)[N-]C(=O)C1=[NH+]OC(C)=C1)C(C)C)C(=[OH+])N[C@H](CCC(=O)OCC1=CC=CC=C1)C[C@@H]1CC[NH2+][C@@H]1[O-].CC(C)C[C@H](NC(=O)[C@@H](NC(=O)[C@H](C)[N-]C(=O)C1=[NH+]OC(C)=C1)C(C)C)C(=[OH+])[N-][C@H](CCC(=O)OCC1=CC=CC=C1)C[C@@H]1CC[NH2+][C@@H]1O.CC(C)C[C@H](NC(=O)[C@@H](NC(=O)[C@H](C)NC(=O)C1=[NH+]OC(C)=C1)C(C)C)C(=[OH+])[N-][C@H](CCC(=O)OCC1=CC=CC=C1)C[C@@H]1CC[NH2+][C@@H]1[O-].CC(C)C[C@H]([N-]C(=O)[C@@H]([N-]C(=O)[C@H](C)[N-]C(=O)C1=[NH+]OC(C)=C1)C(C)C)C(=[OH+])N[C@H](CCC(=O)OCC1=CC=CC=C1)C[C@@H]1CCN[C@@H]1O.CC(C)C[C@H]([N-]C(=O)[C@@H]([N-]C(=O)[C@H](C)NC(=O)C1=[NH+]OC(C)=C1)C(C)C)C(=[OH+])N[C@H](CCC(=O)OCC1=CC=CC=C1)C[C@@H]1CCN[C@@H]1[O-].CC(C)C[C@H]([N-]C(=O)[C@@H]([N-]C(=O)[C@H](C)NC(=O)C1=[NH+]OC(C)=C1)C(C)C)C(=[OH+])[N-][C@H](CCC(=O)OCC1=CC=CC=C1)C[C@@H]1CCN[C@@H]1O.CC(C)C[C@H]([N-]C(=O)[C@@H](NC(=O)[C@H](C)[N-]C(=O)C1=[NH+]OC(C)=C1)C(C)C)C(=[OH+])N[C@H](CCC(=O)OCC1=CC=CC=C1)C[C@@H]1CCN[C@@H]1[O-].CC(C)C[C@H]([N-]C(=O)[C@@H](NC(=O)[C@H](C)[N-]C(=O)C1=[NH+]OC(C)=C1)C(C)C)C(=[OH+])[N-][C@H](CCC(=O)OCC1=CC=CC=C1)C[C@@H]1CCN[C@@H]1O.CC(C)C[C@H]([N-]C(=O)[C@@H](NC(=O)[C@H](C)NC(=O)C1=[NH+]OC(C)=C1)C(C)C)C(=[OH+])[N-][C@H](CCC(=O)OCC1=CC=CC=C1)C[C@@H]1CCN[C@@H]1[O-].CC(C)C[C@H](NC(=O)[C@@H]([N-]C(=O)[C@H](C)[N-]C(=O)C1=[NH+]OC(C)=C1)C(C)C)C(=[OH+])N[C@H](CCC(=O)OCC1=CC=CC=C1)C[C@@H]1CCN[C@@H]1[O-].CC(C)C[C@H](NC(=O)[C@@H]([N-]C(=O)[C@H](C)[N-]C(=O)C1=[NH+]OC(C)=C1)C(C)C)C(=[OH+])[N-][C@H](CCC(=O)OCC1=CC=CC=C1)C[C@@H]1CCN[C@@H]1O.CC(C)C[C@H](NC(=O)[C@@H]([N-]C(=O)[C@H](C)NC(=O)C1=[NH+]OC(C)=C1)C(C)C)C(=[OH+])[N-][C@H](CCC(=O)OCC1=CC=CC=C1)C[C@@H]1CCN[C@@H]1[O-].CC(C)C[C@H](NC(=O)[C@@H](NC(=O)[C@H](C)[N-]C(=O)C1=[NH+]OC(C)=C1)C(C)C)C(=[OH+])[N-][C@H](CCC(=O)OCC1=CC=CC=C1)C[C@@H]1CCN[C@@H]1[O-].CC(C)C[C@H]([N-]C(=O)[C@@H]([N-]C(=O)[C@H](C)[N-]C(=O)C1=NOC(C)=C1)C(C)C)C(=[OH+])N[C@H](CCC(=O)OCC1=CC=CC=C1)C[C@@H]1CC[NH2+][C@@H]1O.CC(C)C[C@H]([N-]C(=O)[C@@H]([N-]C(=O)[C@H](C)NC(=O)C1=NOC(C)=C1)C(C)C)C(=[OH+])N[C@H](CCC(=O)OCC1=CC=CC=C1)C[C@@H]1CC[NH2+][C@@H]1[O-].CC(C)C[C@H]([N-]C(=O)[C@@H]([N-]C(=O)[C@H](C)NC(=O)C1=NOC(C)=C1)C(C)C)C(=[OH+])[N-][C@H](CCC(=O)OCC1=CC=CC=C1)C[C@@H]1CC[NH2+][C@@H]1O.CC(C)C[C@H]([N-]C(=O)[C@@H](NC(=O)[C@H](C)[N-]C(=O)C1=NOC(C)=C1)C(C)C)C(=[OH+])N[C@H](CCC(=O)OCC1=CC=CC=C1)C[C@@H]1CC[NH2+][C@@H]1[O-].CC(C)C[C@H]([N-]C(=O)[C@@H](NC(=O)[C@H](C)[N-]C(=O)C1=NOC(C)=C1)C(C)C)C(=[OH+])[N-][C@H](CCC(=O)OCC1=CC=CC=C1)C[C@@H]1CC[NH2+][C@@H]1O.CC(C)C[C@H]([N-]C(=O)[C@@H](NC(=O)[C@H](C)NC(=O)C1=NOC(C)=C1)C(C)C)C(=[OH+])[N-][C@H](CCC(=O)OCC1=CC=CC=C1)C[C@@H]1CC[NH2+][C@@H]1[O-].CC(C)C[C@H](NC(=O)[C@@H]([N-]C(=O)[C@H](C)[N-]C(=O)C1=NOC(C)=C1)C(C)C)C(=[OH+])N[C@H](CCC(=O)OCC1=CC=CC=C1)C[C@@H]1CC[NH2+][C@@H]1[O-].CC(C)C[C@H](NC(=O)[C@@H]([N-]C(=O)[C@H](C)[N-]C(=O)C1=NOC(C)=C1)C(C)C)C(=[OH+])[N-][C@H](CCC(=O)OCC1=CC=CC=C1)C[C@@H]1CC[NH2+][C@@H]1O.CC(C)C[C@H](NC(=O)[C@@H]([N-]C(=O)[C@H](C)NC(=O)C1=NOC(C)=C1)C(C)C)C(=[OH+])[N-][C@H](CCC(=O)OCC1=CC=CC=C1)C[C@@H]1CC[NH2+][C@@H]1[O-].CC(C)C[C@H](NC(=O)[C@@H](NC(=O)[C@H](C)[N-]C(=O)C1=NOC(C)=C1)C(C)C)C(=[OH+])[N-][C@H](CCC(=O)OCC1=CC=CC=C1)C[C@@H]1CC[NH2+][C@@H]1[O-].CC(C)C[C@H]([N-]C(=O)[C@@H]([N-]C(=O)[C@H](C)[N-]C(=O)C1=NOC(C)=C1)C(C)C)C(=[OH+])N[C@H](CCC(=O)OCC1=CC=CC=C1)C[C@@H]1CCN[C@@H]1[O-].CC(C)C[C@H]([N-]C(=O)[C@@H]([N-]C(=O)[C@H](C)[N-]C(=O)C1=NOC(C)=C1)C(C)C)C(=[OH+])[N-][C@H](CCC(=O)OCC1=CC=CC=C1)C[C@@H]1CCN[C@@H]1O.CC(C)C[C@H]([N-]C(=O)[C@@H]([N-]C(=O)[C@H](C)NC(=O)C1=NOC(C)=C1)C(C)C)C(=[OH+])[N-][C@H](CCC(=O)OCC1=CC=CC=C1)C[C@@H]1CCN[C@@H]1[O-].CC(C)C[C@H]([N-]C(=O)[C@@H](NC(=O)[C@H](C)[N-]C(=O)C1=NOC(C)=C1)C(C)C)C(=[OH+])[N-][C@H](CCC(=O)OCC1=CC=CC=C1)C[C@@H]1CCN[C@@H]1[O-].CC(C)C[C@H](NC(=O)[C@@H]([N-]C(=O)[C@H](C)[N-]C(=O)C1=NOC(C)=C1)C(C)C)C(=[OH+])[N-][C@H](CCC(=O)OCC1=CC=CC=C1)C[C@@H]1CCN[C@@H]1[O-].CC(C)C[C@H]([N-]C(=O)[C@@H]([N-]C(=O)[C@H](C)[N-]C(=O)C1=[NH+]OC(C)=C1)C(C)C)C(=O)N[C@H](CCC(=O)OCC1=CC=CC=C1)C[C@@H]1CC[NH2+][C@@H]1O.CC(C)C[C@H]([N-]C(=O)[C@@H]([N-]C(=O)[C@H](C)NC(=O)C1=[NH+]OC(C)=C1)C(C)C)C(=O)N[C@H](CCC(=O)OCC1=CC=CC=C1)C[C@@H]1CC[NH2+][C@@H]1[O-].CC(C)C[C@H]([N-]C(=O)[C@@H]([N-]C(=O)[C@H](C)NC(=O)C1=[NH+]OC(C)=C1)C(C)C)C(=O)[N-][C@H](CCC(=O)OCC1=CC=CC=C1)C[C@@H]1CC[NH2+][C@@H]1O.CC(C)C[C@H]([N-]C(=O)[C@@H](NC(=O)[C@H](C)[N-]C(=O)C1=[NH+]OC(C)=C1)C(C)C)C(=O)N[C@H](CCC(=O)OCC1=CC=CC=C1)C[C@@H]1CC[NH2+][C@@H]1[O-].CC(C)C[C@H]([N-]C(=O)[C@@H](NC(=O)[C@H](C)[N-]C(=O)C1=[NH+]OC(C)=C1)C(C)C)C(=O)[N-][C@H](CCC(=O)OCC1=CC=CC=C1)C[C@@H]1CC[NH2+][C@@H]1O.CC(C)C[C@H]([N-]C(=O)[C@@H](NC(=O)[C@H](C)NC(=O)C1=[NH+]OC(C)=C1)C(C)C)C(=O)[N-][C@H](CCC(=O)OCC1=CC=CC=C1)C[C@@H]1CC[NH2+][C@@H]1[O-].CC(C)C[C@H](NC(=O)[C@@H]([N-]C(=O)[C@H](C)[N-]C(=O)C1=[NH+]OC(C)=C1)C(C)C)C(=O)N[C@H](CCC(=O)OCC1=CC=CC=C1)C[C@@H]1CC[NH2+][C@@H]1[O-].CC(C)C[C@H](NC(=O)[C@@H]([N-]C(=O)[C@H](C)[N-]C(=O)C1=[NH+]OC(C)=C1)C(C)C)C(=O)[N-][C@H](CCC(=O)OCC1=CC=CC=C1)C[C@@H]1CC[NH2+][C@@H]1O.CC(C)C[C@H](NC(=O)[C@@H]([N-]C(=O)[C@H](C)NC(=O)C1=[NH+]OC(C)=C1)C(C)C)C(=O)[N-][C@H](CCC(=O)OCC1=CC=CC=C1)C[C@@H]1CC[NH2+][C@@H]1[O-].CC(C)C[C@H](NC(=O)[C@@H](NC(=O)[C@H](C)[N-]C(=O)C1=[NH+]OC(C)=C1)C(C)C)C(=O)[N-][C@H](CCC(=O)OCC1=CC=CC=C1)C[C@@H]1CC[NH2+][C@@H]1[O-].CC(C)C[C@H]([N-]C(=O)[C@@H]([N-]C(=O)[C@H](C)[N-]C(=O)C1=[NH+]OC(C)=C1)C(C)C)C(=O)N[C@H](CCC(=O)OCC1=CC=CC=C1)C[C@@H]1CCN[C@@H]1[O-].CC(C)C[C@H]([N-]C(=O)[C@@H]([N-]C(=O)[C@H](C)[N-]C(=O)C1=[NH+]OC(C)=C1)C(C)C)C(=O)[N-][C@H](CCC(=O)OCC1=CC=CC=C1)C[C@@H]1CCN[C@@H]1O.CC(C)C[C@H]([N-]C(=O)[C@@H]([N-]C(=O)[C@H](C)NC(=O)C1=[NH+]OC(C)=C1)C(C)C)C(=O)[N-][C@H](CCC(=O)OCC1=CC=CC=C1)C[C@@H]1CCN[C@@H]1[O-].CC(C)C[C@H]([N-]C(=O)[C@@H](NC(=O)[C@H](C)[N-]C(=O)C1=[NH+]OC(C)=C1)C(C)C)C(=O)[N-][C@H](CCC(=O)OCC1=CC=CC=C1)C[C@@H]1CCN[C@@H]1[O-].CC(C)C[C@H](NC(=O)[C@@H]([N-]C(=O)[C@H](C)[N-]C(=O)C1=[NH+]OC(C)=C1)C(C)C)C(=O)[N-][C@H](CCC(=O)OCC1=CC=CC=C1)C[C@@H]1CCN[C@@H]1[O-].CC(C)C[C@H]([N-]C(=O)[C@@H]([N-]C(=O)[C@H](C)[N-]C(=O)C1=NOC(C)=C1)C(C)C)C(=O)N[C@H](CCC(=O)OCC1=CC=CC=C1)C[C@@H]1CC[NH2+][C@@H]1[O-].CC(C)C[C@H]([N-]C(=O)[C@@H]([N-]C(=O)[C@H](C)[N-]C(=O)C1=NOC(C)=C1)C(C)C)C(=O)[N-][C@H](CCC(=O)OCC1=CC=CC=C1)C[C@@H]1CC[NH2+][C@@H]1O.CC(C)C[C@H]([N-]C(=O)[C@@H]([N-]C(=O)[C@H](C)NC(=O)C1=NOC(C)=C1)C(C)C)C(=O)[N-][C@H](CCC(=O)OCC1=CC=CC=C1)C[C@@H]1CC[NH2+][C@@H]1[O-].CC(C)C[C@H]([N-]C(=O)[C@@H](NC(=O)[C@H](C)[N-]C(=O)C1=NOC(C)=C1)C(C)C)C(=O)[N-][C@H](CCC(=O)OCC1=CC=CC=C1)C[C@@H]1CC[NH2+][C@@H]1[O-].CC(C)C[C@H](NC(=O)[C@@H]([N-]C(=O)[C@H](C)[N-]C(=O)C1=NOC(C)=C1)C(C)C)C(=O)[N-][C@H](CCC(=O)OCC1=CC=CC=C1)C[C@@H]1CC[NH2+][C@@H]1[O-].CC(C)C[C@H]([N-]C(=O)[C@@H]([N-]C(=O)[C@H](C)[N-]C(=O)C1=NOC(C)=C1)C(C)C)C(=O)[N-][C@H](CCC(=O)OCC1=CC=CC=C1)C[C@@H]1CCN[C@@H]1[O-].CC(C)C[C@H]([N-]C(=O)[C@@H]([N-]C(=O)[C@H](C)[N-]C(=O)C1=[NH+]OC(C)=C1)C(C)C)C(=[OH+])N[C@H](CCC(=O)OCC1=CC=CC=C1)C[C@@H]1CC[NH2+][C@@H]1O.CC(C)C[C@H]([N-]C(=O)[C@@H]([N-]C(=O)[C@H](C)NC(=O)C1=[NH+]OC(C)=C1)C(C)C)C(=[OH+])N[C@H](CCC(=O)OCC1=CC=CC=C1)C[C@@H]1CC[NH2+][C@@H]1[O-].CC(C)C[C@H]([N-]C(=O)[C@@H]([N-]C(=O)[C@H](C)NC(=O)C1=[NH+]OC(C)=C1)C(C)C)C(=[OH+])[N-][C@H](CCC(=O)OCC1=CC=CC=C1)C[C@@H]1CC[NH2+][C@@H]1O.CC(C)C[C@H]([N-]C(=O)[C@@H](NC(=O)[C@H](C)[N-]C(=O)C1=[NH+]OC(C)=C1)C(C)C)C(=[OH+])N[C@H](CCC(=O)OCC1=CC=CC=C1)C[C@@H]1CC[NH2+][C@@H]1[O-].CC(C)C[C@H]([N-]C(=O)[C@@H](NC(=O)[C@H](C)[N-]C(=O)C1=[NH+]OC(C)=C1)C(C)C)C(=[OH+])[N-][C@H](CCC(=O)OCC1=CC=CC=C1)C[C@@H]1CC[NH2+][C@@H]1O.CC(C)C[C@H]([N-]C(=O)[C@@H](NC(=O)[C@H](C)NC(=O)C1=[NH+]OC(C)=C1)C(C)C)C(=[OH+])[N-][C@H](CCC(=O)OCC1=CC=CC=C1)C[C@@H]1CC[NH2+][C@@H]1[O-].CC(C)C[C@H](NC(=O)[C@@H]([N-]C(=O)[C@H](C)[N-]C(=O)C1=[NH+]OC(C)=C1)C(C)C)C(=[OH+])N[C@H](CCC(=O)OCC1=CC=CC=C1)C[C@@H]1CC[NH2+][C@@H]1[O-].CC(C)C[C@H](NC(=O)[C@@H]([N-]C(=O)[C@H](C)[N-]C(=O)C1=[NH+]OC(C)=C1)C(C)C)C(=[OH+])[N-][C@H](CCC(=O)OCC1=CC=CC=C1)C[C@@H]1CC[NH2+][C@@H]1O.CC(C)C[C@H](NC(=O)[C@@H]([N-]C(=O)[C@H](C)NC(=O)C1=[NH+]OC(C)=C1)C(C)C)C(=[OH+])[N-][C@H](CCC(=O)OCC1=CC=CC=C1)C[C@@H]1CC[NH2+][C@@H]1[O-].CC(C)C[C@H](NC(=O)[C@@H](NC(=O)[C@H](C)[N-]C(=O)C1=[NH+]OC(C)=C1)C(C)C)C(=[OH+])[N-][C@H](CCC(=O)OCC1=CC=CC=C1)C[C@@H]1CC[NH2+][C@@H]1[O-].CC(C)C[C@H]([N-]C(=O)[C@@H]([N-]C(=O)[C@H](C)[N-]C(=O)C1=[NH+]OC(C)=C1)C(C)C)C(=[OH+])N[C@H](CCC(=O)OCC1=CC=CC=C1)C[C@@H]1CCN[C@@H]1[O-].CC(C)C[C@H]([N-]C(=O)[C@@H]([N-]C(=O)[C@H](C)[N-]C(=O)C1=[NH+]OC(C)=C1)C(C)C)C(=[OH+])[N-][C@H](CCC(=O)OCC1=CC=CC=C1)C[C@@H]1CCN[C@@H]1O.CC(C)C[C@H]([N-]C(=O)[C@@H]([N-]C(=O)[C@H](C)NC(=O)C1=[NH+]OC(C)=C1)C(C)C)C(=[OH+])[N-][C@H](CCC(=O)OCC1=CC=CC=C1)C[C@@H]1CCN[C@@H]1[O-].CC(C)C[C@H]([N-]C(=O)[C@@H](NC(=O)[C@H](C)[N-]C(=O)C1=[NH+]OC(C)=C1)C(C)C)C(=[OH+])[N-][C@H](CCC(=O)OCC1=CC=CC=C1)C[C@@H]1CCN[C@@H]1[O-].CC(C)C[C@H](NC(=O)[C@@H]([N-]C(=O)[C@H](C)[N-]C(=O)C1=[NH+]OC(C)=C1)C(C)C)C(=[OH+])[N-][C@H](CCC(=O)OCC1=CC=CC=C1)C[C@@H]1CCN[C@@H]1[O-].CC(C)C[C@H]([N-]C(=O)[C@@H]([N-]C(=O)[C@H](C)[N-]C(=O)C1=NOC(C)=C1)C(C)C)C(=[OH+])N[C@H](CCC(=O)OCC1=CC=CC=C1)C[C@@H]1CC[NH2+][C@@H]1[O-].CC(C)C[C@H]([N-]C(=O)[C@@H]([N-]C(=O)[C@H](C)[N-]C(=O)C1=NOC(C)=C1)C(C)C)C(=[OH+])[N-][C@H](CCC(=O)OCC1=CC=CC=C1)C[C@@H]1CC[NH2+][C@@H]1O.CC(C)C[C@H]([N-]C(=O)[C@@H]([N-]C(=O)[C@H](C)NC(=O)C1=NOC(C)=C1)C(C)C)C(=[OH+])[N-][C@H](CCC(=O)OCC1=CC=CC=C1)C[C@@H]1CC[NH2+][C@@H]1[O-].CC(C)C[C@H]([N-]C(=O)[C@@H](NC(=O)[C@H](C)[N-]C(=O)C1=NOC(C)=C1)C(C)C)C(=[OH+])[N-][C@H](CCC(=O)OCC1=CC=CC=C1)C[C@@H]1CC[NH2+][C@@H]1[O-].CC(C)C[C@H](NC(=O)[C@@H]([N-]C(=O)[C@H](C)[N-]C(=O)C1=NOC(C)=C1)C(C)C)C(=[OH+])[N-][C@H](CCC(=O)OCC1=CC=CC=C1)C[C@@H]1CC[NH2+][C@@H]1[O-].CC(C)C[C@H]([N-]C(=O)[C@@H]([N-]C(=O)[C@H](C)[N-]C(=O)C1=NOC(C)=C1)C(C)C)C(=[OH+])[N-][C@H](CCC(=O)OCC1=CC=CC=C1)C[C@@H]1CCN[C@@H]1[O-].CC(C)C[C@H]([N-]C(=O)[C@@H]([N-]C(=O)[C@H](C)[N-]C(=O)C1=[NH+]OC(C)=C1)C(C)C)C(=O)N[C@H](CCC(=O)OCC1=CC=CC=C1)C[C@@H]1CC[NH2+][C@@H]1[O-].CC(C)C[C@H]([N-]C(=O)[C@@H]([N-]C(=O)[C@H](C)[N-]C(=O)C1=[NH+]OC(C)=C1)C(C)C)C(=O)[N-][C@H](CCC(=O)OCC1=CC=CC=C1)C[C@@H]1CC[NH2+][C@@H]1O.CC(C)C[C@H]([N-]C(=O)[C@@H]([N-]C(=O)[C@H](C)NC(=O)C1=[NH+]OC(C)=C1)C(C)C)C(=O)[N-][C@H](CCC(=O)OCC1=CC=CC=C1)C[C@@H]1CC[NH2+][C@@H]1[O-].CC(C)C[C@H]([N-]C(=O)[C@@H](NC(=O)[C@H](C)[N-]C(=O)C1=[NH+]OC(C)=C1)C(C)C)C(=O)[N-][C@H](CCC(=O)OCC1=CC=CC=C1)C[C@@H]1CC[NH2+][C@@H]1[O-].CC(C)C[C@H](NC(=O)[C@@H]([N-]C(=O)[C@H](C)[N-]C(=O)C1=[NH+]OC(C)=C1)C(C)C)C(=O)[N-][C@H](CCC(=O)OCC1=CC=CC=C1)C[C@@H]1CC[NH2+][C@@H]1[O-].CC(C)C[C@H]([N-]C(=O)[C@@H]([N-]C(=O)[C@H](C)[N-]C(=O)C1=[NH+]OC(C)=C1)C(C)C)C(=O)[N-][C@H](CCC(=O)OCC1=CC=CC=C1)C[C@@H]1CCN[C@@H]1[O-].CC(C)C[C@H]([N-]C(=O)[C@@H]([N-]C(=O)[C@H](C)[N-]C(=O)C1=NOC(C)=C1)C(C)C)C(=O)[N-][C@H](CCC(=O)OCC1=CC=CC=C1)C[C@@H]1CC[NH2+][C@@H]1[O-].CC(C)C[C@H]([N-]C(=O)[C@@H]([N-]C(=O)[C@H](C)[N-]C(=O)C1=[NH+]OC(C)=C1)C(C)C)C(=[OH+])N[C@H](CCC(=O)OCC1=CC=CC=C1)C[C@@H]1CC[NH2+][C@@H]1[O-].CC(C)C[C@H]([N-]C(=O)[C@@H]([N-]C(=O)[C@H](C)[N-]C(=O)C1=[NH+]OC(C)=C1)C(C)C)C(=[OH+])[N-][C@H](CCC(=O)OCC1=CC=CC=C1)C[C@@H]1CC[NH2+][C@@H]1O.CC(C)C[C@H]([N-]C(=O)[C@@H]([N-]C(=O)[C@H](C)NC(=O)C1=[NH+]OC(C)=C1)C(C)C)C(=[OH+])[N-][C@H](CCC(=O)OCC1=CC=CC=C1)C[C@@H]1CC[NH2+][C@@H]1[O-].CC(C)C[C@H]([N-]C(=O)[C@@H](NC(=O)[C@H](C)[N-]C(=O)C1=[NH+]OC(C)=C1)C(C)C)C(=[OH+])[N-][C@H](CCC(=O)OCC1=CC=CC=C1)C[C@@H]1CC[NH2+][C@@H]1[O-].CC(C)C[C@H](NC(=O)[C@@H]([N-]C(=O)[C@H](C)[N-]C(=O)C1=[NH+]OC(C)=C1)C(C)C)C(=[OH+])[N-][C@H](CCC(=O)OCC1=CC=CC=C1)C[C@@H]1CC[NH2+][C@@H]1[O-].CC(C)C[C@H]([N-]C(=O)[C@@H]([N-]C(=O)[C@H](C)[N-]C(=O)C1=[NH+]OC(C)=C1)C(C)C)C(=[OH+])[N-][C@H](CCC(=O)OCC1=CC=CC=C1)C[C@@H]1CCN[C@@H]1[O-].CC(C)C[C@H]([N-]C(=O)[C@@H]([N-]C(=O)[C@H](C)[N-]C(=O)C1=NOC(C)=C1)C(C)C)C(=[OH+])[N-][C@H](CCC(=O)OCC1=CC=CC=C1)C[C@@H]1CC[NH2+][C@@H]1[O-].CC(C)C[C@H]([N-]C(=O)[C@@H]([N-]C(=O)[C@H](C)[N-]C(=O)C1=[NH+]OC(C)=C1)C(C)C)C(=O)[N-][C@H](CCC(=O)OCC1=CC=CC=C1)C[C@@H]1CC[NH2+][C@@H]1[O-].CC(C)C[C@H]([N-]C(=O)[C@@H]([N-]C(=O)[C@H](C)[N-]C(=O)C1=[NH+]OC(C)=C1)C(C)C)C(=[OH+])[N-][C@H](CCC(=O)OCC1=CC=CC=C1)C[C@@H]1CC[NH2+][C@@H]1[O-]	
