@<TRIPOS>MOLECULE
crystal_redock_e32_er3_1.pdbqt
 102 104 0 0 0
SMALL
GASTEIGER

@<TRIPOS>ATOM
      1 C1        -30.7860   14.4470   23.9560 C.3     1  UNL1        0.0890
      2 H1        -29.7010   14.4890   23.8570 H       1  UNL1        0.0870
      3 N1        -31.1470   13.0640   24.2310 N.am    1  UNL1       -0.3460
      4 C2        -30.5650   11.9460   23.4030 C.2     1  UNL1        0.2410
      5 O1        -29.8100   12.1840   22.5190 O.2     1  UNL1       -0.2710
      6 H2        -31.7930   12.8830   24.9860 H       1  UNL1        0.1630
      7 C3        -30.9460   10.5200   23.7050 C.3     1  UNL1        0.0920
      8 H3        -30.3850   10.1760   24.5740 H       1  UNL1        0.0880
      9 N2        -32.3680   10.4570   24.0540 N.am    1  UNL1       -0.3460
     10 C4        -32.7650   10.1900   25.4150 C.2     1  UNL1        0.2400
     11 O2        -31.9530   10.0220   26.2410 O.2     1  UNL1       -0.2710
     12 H4        -33.0800   10.5980   23.3520 H       1  UNL1        0.1630
     13 C5        -34.2800   10.1210   25.7800 C.3     1  UNL1        0.0860
     14 H5        -34.4580   10.1640   26.8540 H       1  UNL1        0.0860
     15 N3        -34.9580   11.2680   25.1990 N.am    1  UNL1       -0.3430
     16 C6        -35.7500   12.1500   26.0600 C.2     1  UNL1        0.2730
     17 O3        -35.8380   11.9250   27.2170 O.2     1  UNL1       -0.2660
     18 H6        -34.8790   11.4510   24.2090 H       1  UNL1        0.1630
     19 C7        -36.4700   13.3670   25.4600 C.ar    1  UNL1        0.1540
     20 C8        -36.9070   13.5340   24.1080 C.ar    1  UNL1       -0.0170
     21 C9        -37.5050   14.8130   24.0740 C.ar    1  UNL1        0.0770
     22 H7        -36.8050   12.8340   23.2780 H       1  UNL1        0.0910
     23 O4        -37.4180   15.3130   25.2720 O.2     1  UNL1       -0.2180
     24 N4        -36.8170   14.4890   26.0980 N.ar    1  UNL1       -0.1230
     25 C10       -38.1360   15.4820   22.8600 C.3     1  UNL1       -0.0290
     26 H8        -39.0110   16.0510   23.1720 H       1  UNL1        0.0360
     27 H9        -37.4120   16.1520   22.3970 H       1  UNL1        0.0360
     28 H10       -38.4360   14.7200   22.1400 H       1  UNL1        0.0360
     29 C11       -34.8720    8.8440   25.2390 C.3     1  UNL1       -0.0490
     30 H11       -35.0590    8.1540   26.0620 H       1  UNL1        0.0300
     31 H12       -35.8100    9.0650   24.7310 H       1  UNL1        0.0300
     32 H13       -34.1750    8.3890   24.5350 H       1  UNL1        0.0300
     33 C12       -30.6830    9.6370   22.4510 C.3     1  UNL1       -0.0330
     34 H14       -30.5930   10.3030   21.5920 H       1  UNL1        0.0420
     35 C13       -29.3390    8.8540   22.5780 C.3     1  UNL1       -0.0710
     36 H15       -28.9720    8.9260   23.6020 H       1  UNL1        0.0280
     37 H16       -29.5020    7.8070   22.3240 H       1  UNL1        0.0280
     38 H17       -28.6020    9.2830   21.8990 H       1  UNL1        0.0280
     39 C14       -31.8800    8.6670   22.1880 C.3     1  UNL1       -0.0710
     40 H18       -31.6520    7.6870   22.6070 H       1  UNL1        0.0280
     41 H19       -32.7790    9.0650   22.6600 H       1  UNL1        0.0280
     42 H20       -32.0440    8.5760   21.1140 H       1  UNL1        0.0280
     43 C15       -31.3040   15.3350   25.1240 C.2     1  UNL1        0.2400
     44 O5        -31.3130   16.5180   25.0070 O.2     1  UNL1       -0.2710
     45 N5        -31.7950   14.7100   26.3850 N.am    1  UNL1       -0.3550
     46 H21       -31.7960   13.7070   26.4940 H       1  UNL1        0.1620
     47 C16       -32.2860   15.5690   27.4850 C.3     1  UNL1        0.0130
     48 H22       -31.8350   16.5540   27.3680 H       1  UNL1        0.0720
     49 C17       -31.8740   14.9670   28.8100 C.3     1  UNL1       -0.0380
     50 H23       -30.8190   14.7150   28.7040 H       1  UNL1        0.0360
     51 H24       -32.1910   15.6820   29.5690 H       1  UNL1        0.0360
     52 C18       -32.6090   13.6450   29.1210 C.3     1  UNL1        0.0180
     53 H25       -32.9640   13.7390   30.1470 H       1  UNL1        0.0480
     54 H26       -33.3220   13.5040   28.3080 H       1  UNL1        0.0480
     55 C19       -31.6860   12.3950   29.1020 C.2     1  UNL1        0.2590
     56 O6        -30.7720   12.3320   28.3450 O.2     1  UNL1       -0.2650
     57 O7        -31.9520   11.3180   29.9920 O.3     1  UNL1       -0.3170
     58 C20       -32.9700   10.4230   29.5350 C.3     1  UNL1        0.0520
     59 H27       -33.5350   10.9770   28.7860 H       1  UNL1        0.0820
     60 H28       -32.4530    9.5050   29.2580 H       1  UNL1        0.0820
     61 C21       -33.9090   10.1150   30.7310 C.ar    1  UNL1       -0.0340
     62 C22       -34.1970   11.1060   31.6640 C.ar    1  UNL1       -0.0750
     63 C23       -35.0400   10.8290   32.7390 C.ar    1  UNL1       -0.0820
     64 H29       -33.7610   12.0990   31.5540 H       1  UNL1        0.0840
     65 C24       -35.5950    9.5540   32.8810 C.ar    1  UNL1       -0.0830
     66 H30       -35.2650   11.6090   33.4680 H       1  UNL1        0.0830
     67 C25       -35.3020    8.5680   31.9490 C.ar    1  UNL1       -0.0820
     68 H31       -36.2560    9.3300   33.7180 H       1  UNL1        0.0830
     69 C26       -34.4620    8.8410   30.8720 C.ar    1  UNL1       -0.0750
     70 H32       -35.7350    7.5740   32.0640 H       1  UNL1        0.0830
     71 H33       -34.2370    8.0610   30.1440 H       1  UNL1        0.0840
     72 C27       -33.8080   15.6700   27.4220 C.3     1  UNL1       -0.0390
     73 H34       -34.1010   15.0980   26.5410 H       1  UNL1        0.0360
     74 H35       -34.1600   15.3690   28.4090 H       1  UNL1        0.0360
     75 C28       -34.2920   17.1790   27.1870 C.3     1  UNL1       -0.0010
     76 C29       -35.5690   17.5160   28.1670 C.3     1  UNL1       -0.0350
     77 C30       -36.5700   18.0360   27.4160 C.3     1  UNL1        0.0850
     78 H36       -35.9960   16.5920   28.5550 H       1  UNL1        0.0360
     79 H37       -35.3140   18.3280   28.8490 H       1  UNL1        0.0360
     80 N6        -36.2150   17.7820   25.9710 N.4     1  UNL1       -0.0490
     81 H38       -37.4570   17.4570   27.6720 H       1  UNL1        0.0750
     82 H39       -36.5460   19.1090   27.6040 H       1  UNL1        0.0750
     83 C31       -34.6550   17.3690   25.9630 C.3     1  UNL1        0.1930
     84 H40       -36.7610   16.9840   25.6790 H       1  UNL1        0.2800
     85 H41       -36.3170   18.6660   25.4930 H       1  UNL1        0.2800
     86 H42       -33.8950   18.0810   25.6390 H       1  UNL1        0.1290
     87 H43       -33.4620   17.8850   27.1950 H       1  UNL1        0.0460
     88 O8        -34.4570   16.2060   25.1560 O.3     1  UNL1       -0.3690
     89 H44       -34.8250   16.3570   24.2820 H       1  UNL1        0.2120
     90 C32       -31.4400   14.8810   22.6550 C.3     1  UNL1       -0.0350
     91 H45       -31.6920   13.9570   22.1360 H       1  UNL1        0.0370
     92 H46       -32.2290   15.5750   22.9460 H       1  UNL1        0.0370
     93 C33       -30.4840   15.6720   21.7060 C.3     1  UNL1       -0.0590
     94 H47       -30.7370   16.7290   21.7880 H       1  UNL1        0.0380
     95 C34       -28.9840   15.5080   22.1120 C.3     1  UNL1       -0.0730
     96 H48       -28.9090   14.8340   22.9640 H       1  UNL1        0.0280
     97 H49       -28.4230   15.0960   21.2730 H       1  UNL1        0.0280
     98 H50       -28.5720   16.4810   22.3810 H       1  UNL1        0.0280
     99 C35       -30.7010   15.2650   20.2470 C.3     1  UNL1       -0.0730
    100 H51       -30.5940   16.1400   19.6050 H       1  UNL1        0.0280
    101 H52       -29.9620   14.5150   19.9650 H       1  UNL1        0.0280
    102 H53       -31.7020   14.8490   20.1310 H       1  UNL1        0.0280
@<TRIPOS>BOND
     1   100    99    1
     2   101    99    1
     3   102    99    1
     4    99    93    1
     5    42    39    1
     6    97    95    1
     7    34    33    1
     8    93    94    1
     9    93    95    1
    10    93    90    1
    11    38    35    1
    12    95    98    1
    13    95    96    1
    14    91    90    1
    15    28    25    1
    16    39    33    1
    17    39    40    1
    18    39    41    1
    19    37    35    1
    20    27    25    1
    21    33    35    1
    22    33     7    1
    23     5     4    2
    24    35    36    1
    25    90    92    1
    26    90     1    1
    27    25    26    1
    28    25    21    1
    29    22    20    1
    30    12     9    1
    31     4     7    1
    32     4     3   am
    33     7     9    1
    34     7     8    1
    35     2     1    1
    36     1     3    1
    37     1    43    1
    38     9    10   am
    39    21    20   ar
    40    21    23   ar
    41    20    19   ar
    42    18    15    1
    43     3     6    1
    44    89    88    1
    45    32    29    1
    46    31    29    1
    47    44    43    2
    48    43    45   am
    49    88    83    1
    50    15    13    1
    51    15    16   am
    52    29    13    1
    53    29    30    1
    54    23    24   ar
    55    10    13    1
    56    10    11    2
    57    19    16    1
    58    19    24   ar
    59    85    80    1
    60    86    83    1
    61    84    80    1
    62    13    14    1
    63    83    80    1
    64    83    75    1
    65    80    77    1
    66    16    17    2
    67    45    46    1
    68    45    47    1
    69    73    72    1
    70    75    87    1
    71    75    72    1
    72    75    76    1
    73    48    47    1
    74    77    82    1
    75    77    81    1
    76    77    76    1
    77    72    47    1
    78    72    74    1
    79    47    49    1
    80    76    78    1
    81    76    79    1
    82    54    52    1
    83    56    55    2
    84    50    49    1
    85    59    58    1
    86    49    52    1
    87    49    51    1
    88    55    52    1
    89    55    57    1
    90    52    53    1
    91    60    58    1
    92    58    57    1
    93    58    61    1
    94    71    69    1
    95    61    69   ar
    96    61    62   ar
    97    69    67   ar
    98    64    62    1
    99    62    63   ar
   100    67    70    1
   101    67    65   ar
   102    63    65   ar
   103    63    66    1
   104    65    68    1
@<TRIPOS>MOLECULE
crystal_redock_e32_er3_1.pdbqt
 102 104 0 0 0
SMALL
GASTEIGER

@<TRIPOS>ATOM
      1 C         -31.1080   14.0710   24.3990 C.3     1  UNL1        0.0890
      2 H         -30.1250   13.6420   24.5990 H       1  UNL1        0.0870
      3 N         -32.0950   13.0240   24.6140 N.am    1  UNL1       -0.3460
      4 C         -31.8510   11.9440   25.6380 C.2     1  UNL1        0.2410
      5 O         -30.8500   11.9380   26.2760 O.2     1  UNL1       -0.2710
      6 H         -32.9390   13.0450   24.0590 H       1  UNL1        0.1630
      7 C         -32.8860   10.8710   25.8510 C.3     1  UNL1        0.0920
      8 H         -33.0380   10.7270   26.9200 H       1  UNL1        0.0880
      9 N         -34.1660   11.3080   25.2850 N.am    1  UNL1       -0.3460
     10 C         -35.1890   11.8450   26.1490 C.2     1  UNL1        0.2400
     11 O         -34.9990   11.9320   27.3010 O.2     1  UNL1       -0.2710
     12 H         -34.3450   11.2380   24.2940 H       1  UNL1        0.1630
     13 C         -36.5510   12.3060   25.5420 C.3     1  UNL1        0.0860
     14 H         -37.3990   12.0700   26.1840 H       1  UNL1        0.0860
     15 N         -36.5340   13.7510   25.3880 N.am    1  UNL1       -0.3430
     16 C         -37.5050   14.5660   26.1210 C.2     1  UNL1        0.2730
     17 O         -38.2980   14.0480   26.8300 O.2     1  UNL1       -0.2660
     18 H         -35.8550   14.1840   24.7790 H       1  UNL1        0.1630
     19 C         -37.4980   16.0950   25.9700 C.ar    1  UNL1        0.1540
     20 C         -37.1160   16.8470   24.8140 C.ar    1  UNL1       -0.0170
     21 C         -37.2880   18.1990   25.1870 C.ar    1  UNL1        0.0770
     22 H         -36.7680   16.4700   23.8520 H       1  UNL1        0.0910
     23 O         -37.7190   18.2100   26.4150 O.2     1  UNL1       -0.2180
     24 N         -37.8500   16.9940   26.8930 N.ar    1  UNL1       -0.1230
     25 C         -37.0190   19.4170   24.3140 C.3     1  UNL1       -0.0290
     26 H         -36.1630   19.9650   24.7070 H       1  UNL1        0.0360
     27 H         -36.8040   19.0930   23.2950 H       1  UNL1        0.0360
     28 H         -37.8950   20.0640   24.3120 H       1  UNL1        0.0360
     29 C         -36.7550   11.6460   24.2020 C.3     1  UNL1       -0.0490
     30 H         -37.4520   10.8150   24.3080 H       1  UNL1        0.0300
     31 H         -37.1610   12.3720   23.4980 H       1  UNL1        0.0300
     32 H         -35.8000   11.2740   23.8300 H       1  UNL1        0.0300
     33 C         -32.4290    9.5620   25.1430 C.3     1  UNL1       -0.0330
     34 H         -31.3490    9.6200   25.0090 H       1  UNL1        0.0420
     35 C         -32.7260    8.3070   26.0210 C.3     1  UNL1       -0.0710
     36 H         -32.5610    7.4040   25.4330 H       1  UNL1        0.0280
     37 H         -32.0640    8.3040   26.8860 H       1  UNL1        0.0280
     38 H         -33.7630    8.3360   26.3570 H       1  UNL1        0.0280
     39 C         -33.0840    9.4330   23.7300 C.3     1  UNL1       -0.0710
     40 H         -33.5760   10.3700   23.4700 H       1  UNL1        0.0280
     41 H         -32.3130    9.2090   22.9910 H       1  UNL1        0.0280
     42 H         -33.8180    8.6270   23.7420 H       1  UNL1        0.0280
     43 C         -31.4330   15.2600   25.3480 C.2     1  UNL1        0.2400
     44 O         -30.9950   16.3400   25.1140 O.2     1  UNL1       -0.2710
     45 N         -32.2990   15.0550   26.5430 N.am    1  UNL1       -0.3550
     46 H         -32.6820   14.1430   26.7500 H       1  UNL1        0.1620
     47 C         -32.6010   16.1960   27.4350 C.3     1  UNL1        0.0130
     48 H         -31.8660   16.9770   27.2390 H       1  UNL1        0.0720
     49 C         -32.5040   15.7440   28.8740 C.3     1  UNL1       -0.0380
     50 H         -31.5140   16.0510   29.2140 H       1  UNL1        0.0360
     51 H         -33.3950   16.1370   29.3660 H       1  UNL1        0.0360
     52 C         -32.5620   14.2090   29.0260 C.3     1  UNL1        0.0180
     53 H         -33.0600   14.0250   29.9770 H       1  UNL1        0.0480
     54 H         -33.0010   13.8370   28.1000 H       1  UNL1        0.0480
     55 C         -31.1650   13.5380   29.1380 C.2     1  UNL1        0.2590
     56 O         -30.1950   14.0930   28.7360 O.2     1  UNL1       -0.2650
     57 O         -31.0590   12.2420   29.7160 O.3     1  UNL1       -0.3170
     58 C         -31.7750   12.0920   30.9450 C.3     1  UNL1        0.0520
     59 H         -31.0710   11.6390   31.6430 H       1  UNL1        0.0820
     60 H         -32.2020   13.0720   31.1590 H       1  UNL1        0.0820
     61 C         -32.9380   11.0940   30.7020 C.ar    1  UNL1       -0.0340
     62 C         -34.0090   11.0420   31.5890 C.ar    1  UNL1       -0.0750
     63 C         -35.0530   10.1450   31.3720 C.ar    1  UNL1       -0.0820
     64 H         -34.0300   11.7050   32.4550 H       1  UNL1        0.0840
     65 C         -35.0230    9.2950   30.2630 C.ar    1  UNL1       -0.0830
     66 H         -35.8920   10.1090   32.0680 H       1  UNL1        0.0830
     67 C         -33.9510    9.3470   29.3830 C.ar    1  UNL1       -0.0820
     68 H         -35.8360    8.5910   30.0850 H       1  UNL1        0.0830
     69 C         -32.9060   10.2440   29.5950 C.ar    1  UNL1       -0.0750
     70 H         -33.9290    8.6800   28.5200 H       1  UNL1        0.0830
     71 H         -32.0680   10.2790   28.8990 H       1  UNL1        0.0840
     72 C         -34.0110   16.7110   27.1550 C.3     1  UNL1       -0.0390
     73 H         -34.3420   16.1810   26.2620 H       1  UNL1        0.0360
     74 H         -34.5540   16.5920   28.0920 H       1  UNL1        0.0360
     75 C         -34.0120   18.2740   26.8040 C.3     1  UNL1       -0.0010
     76 C         -32.4850   18.8760   26.9220 C.3     1  UNL1       -0.0350
     77 C         -32.5100   19.9770   27.7090 C.3     1  UNL1        0.0850
     78 H         -31.8520   18.1820   27.4730 H       1  UNL1        0.0360
     79 H         -32.1600   19.2610   25.9550 H       1  UNL1        0.0360
     80 N         -33.8510   19.9940   28.4030 N.4     1  UNL1       -0.0490
     81 H         -31.7270   19.8220   28.4510 H       1  UNL1        0.0750
     82 H         -32.4530   20.8240   27.0270 H       1  UNL1        0.0750
     83 C         -34.7750   18.9340   27.6100 C.3     1  UNL1        0.1930
     84 H         -33.6930   19.6460   29.3390 H       1  UNL1        0.2800
     85 H         -34.2320   20.9190   28.2660 H       1  UNL1        0.2800
     86 H         -35.5430   19.2790   26.9180 H       1  UNL1        0.1290
     87 H         -34.5610   18.4910   25.8880 H       1  UNL1        0.0460
     88 O         -35.4490   18.0790   28.5350 O.3     1  UNL1       -0.3690
     89 H         -36.0630   17.5150   28.0590 H       1  UNL1        0.2120
     90 C         -31.1830   14.5350   22.9530 C.3     1  UNL1       -0.0350
     91 H         -31.9760   13.9410   22.5000 H       1  UNL1        0.0370
     92 H         -31.2750   15.6200   23.0030 H       1  UNL1        0.0370
     93 C         -29.8870   14.2390   22.1320 C.3     1  UNL1       -0.0590
     94 H         -30.0740   14.5380   21.1010 H       1  UNL1        0.0380
     95 C         -28.6610   15.0570   22.6510 C.3     1  UNL1       -0.0730
     96 H         -27.7400   14.5850   22.3120 H       1  UNL1        0.0280
     97 H         -28.7120   16.0740   22.2630 H       1  UNL1        0.0280
     98 H         -28.6770   15.0830   23.7400 H       1  UNL1        0.0280
     99 C         -29.5770   12.7400   22.1220 C.3     1  UNL1       -0.0730
    100 H         -30.2290   12.2380   21.4070 H       1  UNL1        0.0280
    101 H         -28.5360   12.5860   21.8360 H       1  UNL1        0.0280
    102 H         -29.7440   12.3280   23.1170 H       1  UNL1        0.0280
@<TRIPOS>BOND
     1    94    93    1
     2   100    99    1
     3   101    99    1
     4    99    93    1
     5    99   102    1
     6    93    95    1
     7    93    90    1
     8    97    95    1
     9    96    95    1
    10    91    90    1
    11    95    98    1
    12    90    92    1
    13    90     1    1
    14    41    39    1
    15    27    25    1
    16    40    39    1
    17    31    29    1
    18    39    42    1
    19    39    33    1
    20    32    29    1
    21    22    20    1
    22     6     3    1
    23    29    30    1
    24    29    13    1
    25    12     9    1
    26    28    25    1
    27    25    26    1
    28    25    21    1
    29     1     2    1
    30     1     3    1
    31     1    43    1
    32     3     4   am
    33    18    15    1
    34    20    21   ar
    35    20    19   ar
    36    34    33    1
    37    44    43    2
    38    33     7    1
    39    33    35    1
    40    21    23   ar
    41     9     7    1
    42     9    10   am
    43    43    45   am
    44    15    13    1
    45    15    16   am
    46    36    35    1
    47    13    10    1
    48    13    14    1
    49     4     7    1
    50     4     5    2
    51     7     8    1
    52    87    75    1
    53    79    76    1
    54    19    16    1
    55    19    24   ar
    56    35    38    1
    57    35    37    1
    58    16    17    2
    59    10    11    2
    60    73    72    1
    61    23    24   ar
    62    45    46    1
    63    45    47    1
    64    75    76    1
    65    75    72    1
    66    75    83    1
    67    86    83    1
    68    76    78    1
    69    76    77    1
    70    82    77    1
    71    72    47    1
    72    72    74    1
    73    48    47    1
    74    47    49    1
    75    83    80    1
    76    83    88    1
    77    77    80    1
    78    77    81    1
    79    89    88    1
    80    54    52    1
    81    85    80    1
    82    80    84    1
    83    70    67    1
    84    56    55    2
    85    49    52    1
    86    49    50    1
    87    49    51    1
    88    71    69    1
    89    52    55    1
    90    52    53    1
    91    55    57    1
    92    67    69   ar
    93    67    65   ar
    94    69    61   ar
    95    57    58    1
    96    68    65    1
    97    65    63   ar
    98    61    58    1
    99    61    62   ar
   100    58    60    1
   101    58    59    1
   102    63    62   ar
   103    63    66    1
   104    62    64    1
@<TRIPOS>MOLECULE
crystal_redock_e32_er3_1.pdbqt
 102 104 0 0 0
SMALL
GASTEIGER

@<TRIPOS>ATOM
      1 C         -32.9720   10.3960   25.5270 C.3     1  UNL1        0.0890
      2 H         -33.6660   10.4750   24.6900 H       1  UNL1        0.0870
      3 N         -32.4080    9.0550   25.5050 N.am    1  UNL1       -0.3460
      4 C         -33.1130    7.9440   24.7690 C.2     1  UNL1        0.2410
      5 O         -34.1360    8.1530   24.2040 O.2     1  UNL1       -0.2710
      6 H         -31.5380    8.8970   25.9940 H       1  UNL1        0.1630
      7 C         -32.5120    6.5630   24.7510 C.3     1  UNL1        0.0920
      8 H         -31.4470    6.6330   24.9730 H       1  UNL1        0.0880
      9 N         -33.1230    5.7510   25.8070 N.am    1  UNL1       -0.3460
     10 C         -32.6460    5.8570   27.1650 C.2     1  UNL1        0.2400
     11 O         -31.7720    6.5910   27.4240 O.2     1  UNL1       -0.2710
     12 H         -33.8770    5.1120   25.5990 H       1  UNL1        0.1630
     13 C         -33.2980    4.9870   28.2840 C.3     1  UNL1        0.0860
     14 H         -32.6600    4.8810   29.1610 H       1  UNL1        0.0860
     15 N         -34.5190    5.6360   28.7340 N.am    1  UNL1       -0.3430
     16 C         -34.9080    5.5420   30.1430 C.2     1  UNL1        0.2730
     17 O         -34.2340    4.9400   30.9050 O.2     1  UNL1       -0.2660
     18 H         -35.0900    6.1460   28.0750 H       1  UNL1        0.1630
     19 C         -36.1950    6.2240   30.6330 C.ar    1  UNL1        0.1540
     20 C         -36.4580    7.6290   30.6970 C.ar    1  UNL1       -0.0170
     21 C         -37.7700    7.7300   31.2130 C.ar    1  UNL1        0.0770
     22 H         -35.7990    8.4500   30.4130 H       1  UNL1        0.0910
     23 O         -38.2000    6.5190   31.4170 O.2     1  UNL1       -0.2180
     24 N         -37.2990    5.6230   31.0860 N.ar    1  UNL1       -0.1230
     25 C         -38.5370    9.0180   31.4800 C.3     1  UNL1       -0.0290
     26 H         -38.6190    9.1760   32.5550 H       1  UNL1        0.0360
     27 H         -38.0070    9.8560   31.0290 H       1  UNL1        0.0360
     28 H         -39.5340    8.9430   31.0470 H       1  UNL1        0.0360
     29 C         -33.6120    3.6170   27.7410 C.3     1  UNL1       -0.0490
     30 H         -34.2870    3.1010   28.4230 H       1  UNL1        0.0300
     31 H         -34.0860    3.7130   26.7640 H       1  UNL1        0.0300
     32 H         -32.6890    3.0450   27.6420 H       1  UNL1        0.0300
     33 C         -32.7800    5.8990   23.3690 C.3     1  UNL1       -0.0330
     34 H         -33.6310    6.4090   22.9180 H       1  UNL1        0.0420
     35 C         -31.5630    6.0770   22.4080 C.3     1  UNL1       -0.0710
     36 H         -31.8080    5.6610   21.4300 H       1  UNL1        0.0280
     37 H         -31.3350    7.1370   22.3040 H       1  UNL1        0.0280
     38 H         -30.6970    5.5560   22.8170 H       1  UNL1        0.0280
     39 C         -33.1530    4.3910   23.5360 C.3     1  UNL1       -0.0710
     40 H         -33.8920    4.1140   22.7850 H       1  UNL1        0.0280
     41 H         -32.2590    3.7790   23.4100 H       1  UNL1        0.0280
     42 H         -33.5670    4.2270   24.5310 H       1  UNL1        0.0280
     43 C         -31.8090   11.4250   25.4240 C.2     1  UNL1        0.2400
     44 O         -30.7300   11.1400   25.8320 O.2     1  UNL1       -0.2710
     45 N         -32.0390   12.7620   24.8070 N.am    1  UNL1       -0.3550
     46 H         -32.9500   13.0140   24.4520 H       1  UNL1        0.1620
     47 C         -30.9230   13.7280   24.7140 C.3     1  UNL1        0.0130
     48 H         -30.1270   13.3850   25.3740 H       1  UNL1        0.0720
     49 C         -31.4060   15.0920   25.1520 C.3     1  UNL1       -0.0380
     50 H         -30.9570   15.2640   26.1310 H       1  UNL1        0.0360
     51 H         -31.1800   15.7640   24.3240 H       1  UNL1        0.0360
     52 C         -32.9350   15.1500   25.3580 C.3     1  UNL1        0.0180
     53 H         -33.3330   15.6460   24.4730 H       1  UNL1        0.0480
     54 H         -33.2400   14.1300   25.5950 H       1  UNL1        0.0480
     55 C         -33.3720   16.0200   26.5690 C.2     1  UNL1        0.2590
     56 O         -33.7990   17.1160   26.4020 O.2     1  UNL1       -0.2650
     57 O         -33.2440   15.4960   27.8850 O.3     1  UNL1       -0.3170
     58 C         -33.6470   14.1290   28.0090 C.3     1  UNL1        0.0520
     59 H         -34.5960   14.1480   28.5450 H       1  UNL1        0.0820
     60 H         -33.5980   13.7140   27.0030 H       1  UNL1        0.0820
     61 C         -32.6000   13.3990   28.8920 C.ar    1  UNL1       -0.0340
     62 C         -31.2580   13.3960   28.5230 C.ar    1  UNL1       -0.0750
     63 C         -30.3170   12.7410   29.3160 C.ar    1  UNL1       -0.0820
     64 H         -30.9440   13.9070   27.6130 H       1  UNL1        0.0840
     65 C         -30.7230   12.0840   30.4810 C.ar    1  UNL1       -0.0830
     66 H         -29.2670   12.7410   29.0250 H       1  UNL1        0.0830
     67 C         -32.0630   12.0870   30.8440 C.ar    1  UNL1       -0.0820
     68 H         -29.9940   11.5700   31.1070 H       1  UNL1        0.0830
     69 C         -33.0060   12.7430   30.0560 C.ar    1  UNL1       -0.0750
     70 H         -32.3760   11.5720   31.7520 H       1  UNL1        0.0830
     71 H         -34.0570   12.7410   30.3480 H       1  UNL1        0.0840
     72 C         -30.4230   13.8030   23.2730 C.3     1  UNL1       -0.0390
     73 H         -29.4490   13.3120   23.2780 H       1  UNL1        0.0360
     74 H         -31.2320   13.4010   22.6640 H       1  UNL1        0.0360
     75 C         -30.1860   15.3170   22.8060 C.3     1  UNL1       -0.0010
     76 C         -31.2810   15.7230   21.6470 C.3     1  UNL1       -0.0350
     77 C         -30.6200   16.2470   20.5870 C.3     1  UNL1        0.0850
     78 H         -31.7440   14.8240   21.2400 H       1  UNL1        0.0360
     79 H         -31.9030   16.5480   21.9930 H       1  UNL1        0.0360
     80 N         -29.1560   15.9350   20.7820 N.4     1  UNL1       -0.0490
     81 H         -30.9870   15.7020   19.7170 H       1  UNL1        0.0750
     82 H         -30.7660   17.3240   20.6570 H       1  UNL1        0.0750
     83 C         -29.0000   15.4770   22.3220 C.3     1  UNL1        0.1930
     84 H         -28.9500   15.1440   20.1880 H       1  UNL1        0.2800
     85 H         -28.6590   16.8050   20.6530 H       1  UNL1        0.2800
     86 H         -28.5740   16.1550   23.0610 H       1  UNL1        0.1290
     87 H         -30.0820   15.9980   23.6500 H       1  UNL1        0.0460
     88 O         -28.2190   14.2830   22.4040 O.3     1  UNL1       -0.3690
     89 H         -28.7780   13.5530   22.6790 H       1  UNL1        0.2120
     90 C         -33.7180   10.5990   26.8360 C.3     1  UNL1       -0.0350
     91 H         -33.0220   11.1270   27.4870 H       1  UNL1        0.0370
     92 H         -34.6650   11.0640   26.5600 H       1  UNL1        0.0370
     93 C         -34.0780    9.2650   27.5650 C.3     1  UNL1       -0.0590
     94 H         -33.5600    8.4570   27.0500 H       1  UNL1        0.0380
     95 C         -33.6040    9.2620   29.0540 C.3     1  UNL1       -0.0730
     96 H         -34.3900    9.6740   29.6870 H       1  UNL1        0.0280
     97 H         -33.3880    8.2400   29.3650 H       1  UNL1        0.0280
     98 H         -32.7040    9.8690   29.1510 H       1  UNL1        0.0280
     99 C         -35.5780    8.9770   27.4700 C.3     1  UNL1       -0.0730
    100 H         -35.9370    8.5960   28.4270 H       1  UNL1        0.0280
    101 H         -36.1100    9.8960   27.2230 H       1  UNL1        0.0280
    102 H         -35.7570    8.2350   26.6930 H       1  UNL1        0.0280
@<TRIPOS>BOND
     1    81    77    1
     2    84    80    1
     3    77    82    1
     4    77    80    1
     5    77    76    1
     6    85    80    1
     7    80    83    1
     8    78    76    1
     9    36    35    1
    10    76    79    1
    11    76    75    1
    12    37    35    1
    13    83    88    1
    14    83    75    1
    15    83    86    1
    16    88    89    1
    17    35    38    1
    18    35    33    1
    19    74    72    1
    20    40    39    1
    21    75    72    1
    22    75    87    1
    23    34    33    1
    24    72    73    1
    25    72    47    1
    26    33    39    1
    27    33     7    1
    28    41    39    1
    29    39    42    1
    30     5     4    2
    31    51    49    1
    32    46    45    1
    33    53    52    1
    34     2     1    1
    35    47    45    1
    36    47    49    1
    37    47    48    1
    38     7     4    1
    39     7     8    1
    40     7     9    1
    41     4     3   am
    42    45    43   am
    43    49    52    1
    44    49    50    1
    45    52    54    1
    46    52    55    1
    47    43     1    1
    48    43    44    2
    49     3     1    1
    50     3     6    1
    51     1    90    1
    52    12     9    1
    53     9    10   am
    54    56    55    2
    55    92    90    1
    56    55    57    1
    57   102    99    1
    58    31    29    1
    59    90    91    1
    60    90    93    1
    61    60    58    1
    62    94    93    1
    63    10    11    2
    64    10    13    1
    65   101    99    1
    66    99    93    1
    67    99   100    1
    68    93    95    1
    69    64    62    1
    70    32    29    1
    71    29    13    1
    72    29    30    1
    73    57    58    1
    74    58    59    1
    75    58    61    1
    76    18    15    1
    77    13    15    1
    78    13    14    1
    79    62    61   ar
    80    62    63   ar
    81    15    16   am
    82    61    69   ar
    83    66    63    1
    84    95    98    1
    85    95    97    1
    86    95    96    1
    87    63    65   ar
    88    69    71    1
    89    69    67   ar
    90    16    19    1
    91    16    17    2
    92    22    20    1
    93    65    67   ar
    94    65    68    1
    95    19    20   ar
    96    19    24   ar
    97    20    21   ar
    98    67    70    1
    99    27    25    1
   100    28    25    1
   101    24    23   ar
   102    21    23   ar
   103    21    25    1
   104    25    26    1
@<TRIPOS>MOLECULE
crystal_redock_e32_er3_1.pdbqt
 102 104 0 0 0
SMALL
GASTEIGER

@<TRIPOS>ATOM
      1 C         -32.9580   10.2500   25.4440 C.3     1  UNL1        0.0890
      2 H         -33.6350   10.3260   24.5920 H       1  UNL1        0.0870
      3 N         -32.3940    8.9080   25.4370 N.am    1  UNL1       -0.3460
      4 C         -33.1450    7.7690   24.7950 C.2     1  UNL1        0.2410
      5 O         -34.2040    7.9570   24.2920 O.2     1  UNL1       -0.2710
      6 H         -31.4930    8.7690   25.8720 H       1  UNL1        0.1630
      7 C         -32.5440    6.3880   24.7920 C.3     1  UNL1        0.0920
      8 H         -31.4770    6.4620   25.0030 H       1  UNL1        0.0880
      9 N         -33.1450    5.5910   25.8660 N.am    1  UNL1       -0.3460
     10 C         -32.6890    5.7530   27.2250 C.2     1  UNL1        0.2400
     11 O         -31.8390    6.5190   27.4710 O.2     1  UNL1       -0.2710
     12 H         -33.8780    4.9260   25.6680 H       1  UNL1        0.1630
     13 C         -33.3300    4.9000   28.3630 C.3     1  UNL1        0.0860
     14 H         -32.6920    4.8250   29.2440 H       1  UNL1        0.0860
     15 N         -34.5620    5.5390   28.7950 N.am    1  UNL1       -0.3430
     16 C         -34.9220    5.5260   30.2140 C.2     1  UNL1        0.2730
     17 O         -34.2160    4.9960   31.0000 O.2     1  UNL1       -0.2660
     18 H         -35.1610    5.9880   28.1160 H       1  UNL1        0.1630
     19 C         -36.2210    6.1990   30.6850 C.ar    1  UNL1        0.1540
     20 C         -36.5080    7.6010   30.7100 C.ar    1  UNL1       -0.0170
     21 C         -37.8220    7.6930   31.2220 C.ar    1  UNL1        0.0770
     22 H         -35.8630    8.4240   30.4040 H       1  UNL1        0.0910
     23 O         -38.2320    6.4820   31.4590 O.2     1  UNL1       -0.2180
     24 N         -37.3150    5.5920   31.1530 N.ar    1  UNL1       -0.1230
     25 C         -38.6110    8.9750   31.4540 C.3     1  UNL1       -0.0290
     26 H         -38.9180    9.0300   32.4980 H       1  UNL1        0.0360
     27 H         -37.9850    9.8350   31.2140 H       1  UNL1        0.0360
     28 H         -39.4940    8.9790   30.8150 H       1  UNL1        0.0360
     29 C         -33.6200    3.5120   27.8510 C.3     1  UNL1       -0.0490
     30 H         -34.0330    3.5750   26.8440 H       1  UNL1        0.0300
     31 H         -32.6970    2.9330   27.8300 H       1  UNL1        0.0300
     32 H         -34.3400    3.0250   28.5090 H       1  UNL1        0.0300
     33 C         -32.8250    5.7040   23.4220 C.3     1  UNL1       -0.0330
     34 H         -33.7050    6.1800   22.9910 H       1  UNL1        0.0420
     35 C         -31.6410    5.9150   22.4280 C.3     1  UNL1       -0.0710
     36 H         -31.6090    5.0880   21.7190 H       1  UNL1        0.0280
     37 H         -31.7830    6.8510   21.8880 H       1  UNL1        0.0280
     38 H         -30.7030    5.9540   22.9820 H       1  UNL1        0.0280
     39 C         -33.1410    4.1850   23.6110 C.3     1  UNL1       -0.0710
     40 H         -34.2020    4.0600   23.8290 H       1  UNL1        0.0280
     41 H         -32.8920    3.6460   22.6970 H       1  UNL1        0.0280
     42 H         -32.5510    3.7910   24.4370 H       1  UNL1        0.0280
     43 C         -31.7930   11.2770   25.3610 C.2     1  UNL1        0.2400
     44 O         -30.7180   10.9870   25.7780 O.2     1  UNL1       -0.2710
     45 N         -32.0150   12.6200   24.7530 N.am    1  UNL1       -0.3550
     46 H         -32.9220   12.8760   24.3910 H       1  UNL1        0.1620
     47 C         -30.8960   13.5860   24.6800 C.3     1  UNL1        0.0130
     48 H         -30.0820   13.2020   25.2940 H       1  UNL1        0.0720
     49 C         -31.3570   14.9240   25.2110 C.3     1  UNL1       -0.0380
     50 H         -30.5560   15.6260   24.9760 H       1  UNL1        0.0360
     51 H         -32.3540   15.0770   24.7990 H       1  UNL1        0.0360
     52 C         -31.5120   14.9390   26.7470 C.3     1  UNL1        0.0180
     53 H         -30.9830   14.0570   27.1060 H       1  UNL1        0.0480
     54 H         -31.1960   15.9320   27.0670 H       1  UNL1        0.0480
     55 C         -32.9810   14.7820   27.2290 C.2     1  UNL1        0.2590
     56 O         -33.7340   14.0700   26.6480 O.2     1  UNL1       -0.2650
     57 O         -33.4220   15.5110   28.3690 O.3     1  UNL1       -0.3170
     58 C         -34.5070   16.4040   28.1040 C.3     1  UNL1        0.0520
     59 H         -35.1460   15.8880   27.3870 H       1  UNL1        0.0820
     60 H         -34.9020   16.6860   29.0800 H       1  UNL1        0.0820
     61 C         -33.9290   17.6730   27.4240 C.ar    1  UNL1       -0.0340
     62 C         -34.3860   18.0610   26.1690 C.ar    1  UNL1       -0.0750
     63 C         -33.8660   19.2010   25.5580 C.ar    1  UNL1       -0.0820
     64 H         -35.1510   17.4710   25.6640 H       1  UNL1        0.0840
     65 C         -32.8820   19.9530   26.2060 C.ar    1  UNL1       -0.0830
     66 H         -34.2270   19.5030   24.5740 H       1  UNL1        0.0830
     67 C         -32.4270   19.5600   27.4570 C.ar    1  UNL1       -0.0820
     68 H         -32.4710   20.8460   25.7350 H       1  UNL1        0.0830
     69 C         -32.9450   18.4230   28.0730 C.ar    1  UNL1       -0.0750
     70 H         -31.6580   20.1480   27.9590 H       1  UNL1        0.0830
     71 H         -32.5830   18.1220   29.0560 H       1  UNL1        0.0840
     72 C         -30.4410   13.7410   23.2310 C.3     1  UNL1       -0.0390
     73 H         -29.4700   13.2480   23.1770 H       1  UNL1        0.0360
     74 H         -31.2710   13.3760   22.6250 H       1  UNL1        0.0360
     75 C         -30.2130   15.2780   22.8420 C.3     1  UNL1       -0.0010
     76 C         -31.3000   15.7330   21.6960 C.3     1  UNL1       -0.0350
     77 C         -30.6340   16.3150   20.6700 C.3     1  UNL1        0.0850
     78 H         -31.7530   14.8530   21.2390 H       1  UNL1        0.0360
     79 H         -31.9320   16.5350   22.0770 H       1  UNL1        0.0360
     80 N         -29.1700   16.0060   20.8620 N.4     1  UNL1       -0.0490
     81 H         -30.9890   15.8130   19.7700 H       1  UNL1        0.0750
     82 H         -30.7900   17.3870   20.7920 H       1  UNL1        0.0750
     83 C         -29.0240   15.4710   22.3780 C.3     1  UNL1        0.1930
     84 H         -28.9520   15.2470   20.2310 H       1  UNL1        0.2800
     85 H         -28.6790   16.8850   20.7820 H       1  UNL1        0.2800
     86 H         -28.6100   16.1150   23.1550 H       1  UNL1        0.1290
     87 H         -30.1230   15.9170   23.7210 H       1  UNL1        0.0460
     88 O         -28.2340   14.2810   22.4080 O.3     1  UNL1       -0.3690
     89 H         -28.3470   13.8430   23.2540 H       1  UNL1        0.2120
     90 C         -33.7310   10.4570   26.7360 C.3     1  UNL1       -0.0350
     91 H         -33.9200   11.5280   26.7910 H       1  UNL1        0.0370
     92 H         -34.5660    9.7580   26.6880 H       1  UNL1        0.0370
     93 C         -32.9190   10.0860   28.0180 C.3     1  UNL1       -0.0590
     94 H         -31.9920    9.6110   27.6970 H       1  UNL1        0.0380
     95 C         -32.5410   11.3460   28.8610 C.3     1  UNL1       -0.0730
     96 H         -33.3840   12.0360   28.8810 H       1  UNL1        0.0280
     97 H         -32.2970   11.0430   29.8790 H       1  UNL1        0.0280
     98 H         -31.6790   11.8390   28.4120 H       1  UNL1        0.0280
     99 C         -33.6790    9.0680   28.8720 C.3     1  UNL1       -0.0730
    100 H         -34.2090    9.5870   29.6710 H       1  UNL1        0.0280
    101 H         -34.3970    8.5340   28.2480 H       1  UNL1        0.0280
    102 H         -32.9750    8.3570   29.3030 H       1  UNL1        0.0280
@<TRIPOS>BOND
     1    81    77    1
     2    84    80    1
     3    77    82    1
     4    77    80    1
     5    77    76    1
     6    85    80    1
     7    80    83    1
     8    78    76    1
     9    76    79    1
    10    76    75    1
    11    36    35    1
    12    37    35    1
    13    83    88    1
    14    83    75    1
    15    83    86    1
    16    88    89    1
    17    35    38    1
    18    35    33    1
    19    74    72    1
    20    41    39    1
    21    75    72    1
    22    75    87    1
    23    34    33    1
    24    73    72    1
    25    72    47    1
    26    33    39    1
    27    33     7    1
    28    39    40    1
    29    39    42    1
    30     5     4    2
    31    46    45    1
    32    66    63    1
    33     2     1    1
    34    47    45    1
    35    47    49    1
    36    47    48    1
    37    45    43   am
    38     7     4    1
    39     7     8    1
    40     7     9    1
    41     4     3   am
    42    51    49    1
    43    50    49    1
    44    49    52    1
    45    43     1    1
    46    43    44    2
    47     3     1    1
    48     3     6    1
    49     1    90    1
    50    63    62   ar
    51    63    65   ar
    52    64    62    1
    53    12     9    1
    54    68    65    1
    55     9    10   am
    56    62    61   ar
    57    65    67   ar
    58    56    55    2
    59    92    90    1
    60    90    91    1
    61    90    93    1
    62    52    54    1
    63    52    53    1
    64    52    55    1
    65    30    29    1
    66    10    11    2
    67    10    13    1
    68    55    57    1
    69    59    58    1
    70    61    69   ar
    71    61    58    1
    72    67    70    1
    73    67    69   ar
    74    94    93    1
    75    31    29    1
    76    29    13    1
    77    29    32    1
    78    93    95    1
    79    93    99    1
    80    69    71    1
    81    58    57    1
    82    58    60    1
    83    18    15    1
    84   101    99    1
    85    13    15    1
    86    13    14    1
    87    98    95    1
    88    15    16   am
    89    95    96    1
    90    95    97    1
    91    99   102    1
    92    99   100    1
    93    16    19    1
    94    16    17    2
    95    22    20    1
    96    19    20   ar
    97    19    24   ar
    98    20    21   ar
    99    28    25    1
   100    24    23   ar
   101    27    25    1
   102    21    25    1
   103    21    23   ar
   104    25    26    1
@<TRIPOS>MOLECULE
crystal_redock_e32_er3_1.pdbqt
 102 104 0 0 0
SMALL
GASTEIGER

@<TRIPOS>ATOM
      1 C         -31.3340   14.6070   24.2250 C.3     1  UNL1        0.0890
      2 H         -30.3110   14.5550   24.5990 H       1  UNL1        0.0870
      3 N         -31.8380   13.2450   24.1350 N.am    1  UNL1       -0.3460
      4 C         -31.6210   12.2770   25.2700 C.2     1  UNL1        0.2410
      5 O         -31.0350   12.6160   26.2450 O.2     1  UNL1       -0.2710
      6 H         -32.3310   12.9750   23.2960 H       1  UNL1        0.1630
      7 C         -32.1540   10.8720   25.1630 C.3     1  UNL1        0.0920
      8 H         -33.0140   10.8650   24.4930 H       1  UNL1        0.0880
      9 N         -31.1330   10.0050   24.5670 N.am    1  UNL1       -0.3460
     10 C         -31.3920    9.3450   23.3110 C.2     1  UNL1        0.2400
     11 O         -32.4180    9.4980   22.7680 O.2     1  UNL1       -0.2710
     12 H         -30.2440    9.8620   25.0250 H       1  UNL1        0.1630
     13 C         -30.3030    8.4210   22.6830 C.3     1  UNL1        0.0860
     14 H         -29.8950    7.7050   23.3960 H       1  UNL1        0.0860
     15 N         -30.9040    7.6450   21.6110 N.am    1  UNL1       -0.3430
     16 C         -31.5150    6.3490   21.9140 C.2     1  UNL1        0.2730
     17 O         -31.5150    5.9390   23.0230 O.2     1  UNL1       -0.2660
     18 H         -30.8960    8.0020   20.6660 H       1  UNL1        0.1630
     19 C         -32.1550    5.5180   20.7910 C.ar    1  UNL1        0.1540
     20 C         -32.1250    4.0950   20.6440 C.ar    1  UNL1       -0.0170
     21 C         -32.8530    3.8370   19.4610 C.ar    1  UNL1        0.0770
     22 H         -31.6490    3.3620   21.2950 H       1  UNL1        0.0910
     23 O         -33.2510    4.9840   18.9930 O.2     1  UNL1       -0.2180
     24 N         -32.8550    5.9800   19.7510 N.ar    1  UNL1       -0.1230
     25 C         -33.1230    2.4690   18.8490 C.3     1  UNL1       -0.0290
     26 H         -32.3010    1.7950   19.0880 H       1  UNL1        0.0360
     27 H         -34.0520    2.0670   19.2540 H       1  UNL1        0.0360
     28 H         -33.2110    2.5660   17.7670 H       1  UNL1        0.0360
     29 C         -29.1770    9.2650   22.1420 C.3     1  UNL1       -0.0490
     30 H         -29.5750    9.9910   21.4330 H       1  UNL1        0.0300
     31 H         -28.6880    9.7880   22.9630 H       1  UNL1        0.0300
     32 H         -28.4530    8.6240   21.6370 H       1  UNL1        0.0300
     33 C         -32.5140   10.3440   26.5830 C.3     1  UNL1       -0.0330
     34 H         -31.7940   10.7670   27.2830 H       1  UNL1        0.0420
     35 C         -33.9330   10.8220   27.0240 C.3     1  UNL1       -0.0710
     36 H         -34.3390   11.4970   26.2710 H       1  UNL1        0.0280
     37 H         -34.5900    9.9590   27.1310 H       1  UNL1        0.0280
     38 H         -33.8600   11.3440   27.9780 H       1  UNL1        0.0280
     39 C         -32.3950    8.7870   26.6470 C.3     1  UNL1       -0.0710
     40 H         -33.3710    8.3570   26.8730 H       1  UNL1        0.0280
     41 H         -32.0450    8.4100   25.6860 H       1  UNL1        0.0280
     42 H         -31.6850    8.5090   27.4260 H       1  UNL1        0.0280
     43 C         -32.2640   15.4180   25.1710 C.2     1  UNL1        0.2400
     44 O         -33.2760   15.8810   24.7520 O.2     1  UNL1       -0.2710
     45 N         -31.8990   15.6110   26.6040 N.am    1  UNL1       -0.3550
     46 H         -31.0450   15.2190   26.9730 H       1  UNL1        0.1620
     47 C         -32.7950   16.3830   27.4910 C.3     1  UNL1        0.0130
     48 H         -33.8130   16.2730   27.1190 H       1  UNL1        0.0720
     49 C         -32.3900   17.8400   27.4650 C.3     1  UNL1       -0.0380
     50 H         -31.8890   18.0240   28.4150 H       1  UNL1        0.0360
     51 H         -31.8510   17.9780   26.5270 H       1  UNL1        0.0360
     52 C         -33.6010   18.7970   27.4180 C.3     1  UNL1        0.0180
     53 H         -34.4140   18.2700   27.9140 H       1  UNL1        0.0480
     54 H         -33.2430   19.7470   27.8170 H       1  UNL1        0.0480
     55 C         -34.1040   19.1010   25.9790 C.2     1  UNL1        0.2590
     56 O         -33.3490   19.4830   25.1440 O.2     1  UNL1       -0.2650
     57 O         -35.4820   18.9300   25.6720 O.3     1  UNL1       -0.3170
     58 C         -36.2080   18.1810   26.6510 C.3     1  UNL1        0.0520
     59 H         -35.5910   18.1930   27.5490 H       1  UNL1        0.0820
     60 H         -37.2080   18.6130   26.6720 H       1  UNL1        0.0820
     61 C         -36.3170   16.7160   26.1500 C.ar    1  UNL1       -0.0340
     62 C         -36.0480   15.6610   27.0160 C.ar    1  UNL1       -0.0750
     63 C         -36.1450   14.3460   26.5660 C.ar    1  UNL1       -0.0820
     64 H         -35.7600   15.8660   28.0480 H       1  UNL1        0.0840
     65 C         -36.5110   14.0860   25.2420 C.ar    1  UNL1       -0.0830
     66 H         -35.9350   13.5210   27.2480 H       1  UNL1        0.0830
     67 C         -36.7760   15.1420   24.3810 C.ar    1  UNL1       -0.0820
     68 H         -36.5910   13.0600   24.8820 H       1  UNL1        0.0830
     69 C         -36.6820   16.4580   24.8270 C.ar    1  UNL1       -0.0750
     70 H         -37.0590   14.9360   23.3480 H       1  UNL1        0.0830
     71 H         -36.8920   17.2820   24.1440 H       1  UNL1        0.0840
     72 C         -32.6920   15.8510   28.9190 C.3     1  UNL1       -0.0390
     73 H         -32.2370   16.6570   29.4970 H       1  UNL1        0.0360
     74 H         -33.6920   15.4980   29.1700 H       1  UNL1        0.0360
     75 C         -31.7080   14.5900   29.0120 C.3     1  UNL1       -0.0010
     76 C         -32.5650   13.2380   29.3880 C.3     1  UNL1       -0.0350
     77 C         -31.9770   12.6290   30.4450 C.3     1  UNL1        0.0850
     78 H         -33.5490   13.5130   29.7670 H       1  UNL1        0.0360
     79 H         -32.4750   12.5040   28.5870 H       1  UNL1        0.0360
     80 N         -30.9920   13.6120   31.0300 N.4     1  UNL1       -0.0490
     81 H         -32.7780   12.4570   31.1640 H       1  UNL1        0.0750
     82 H         -31.4300   11.7840   30.0270 H       1  UNL1        0.0750
     83 C         -30.8050   14.7670   29.9180 C.3     1  UNL1        0.1930
     84 H         -31.4380   14.0150   31.8410 H       1  UNL1        0.2800
     85 H         -30.1180   13.1150   31.1280 H       1  UNL1        0.2800
     86 H         -29.9080   14.8010   29.3000 H       1  UNL1        0.1290
     87 H         -31.0340   14.5290   28.1580 H       1  UNL1        0.0460
     88 O         -30.8980   16.0570   30.5270 O.3     1  UNL1       -0.3690
     89 H         -31.7710   16.1670   30.9120 H       1  UNL1        0.2120
     90 C         -31.3440   15.2330   22.8390 C.3     1  UNL1       -0.0350
     91 H         -32.2870   14.9230   22.3900 H       1  UNL1        0.0370
     92 H         -31.1380   16.2910   22.9980 H       1  UNL1        0.0370
     93 C         -30.2140   14.6990   21.9020 C.3     1  UNL1       -0.0590
     94 H         -30.2590   13.6100   21.9170 H       1  UNL1        0.0380
     95 C         -30.4060   15.1640   20.4230 C.3     1  UNL1       -0.0730
     96 H         -29.6110   15.8590   20.1540 H       1  UNL1        0.0280
     97 H         -30.3700   14.2980   19.7620 H       1  UNL1        0.0280
     98 H         -31.3710   15.6590   20.3210 H       1  UNL1        0.0280
     99 C         -28.8340   15.1040   22.4260 C.3     1  UNL1       -0.0730
    100 H         -28.6270   16.1370   22.1450 H       1  UNL1        0.0280
    101 H         -28.8150   15.0130   23.5120 H       1  UNL1        0.0280
    102 H         -28.0750   14.4510   21.9940 H       1  UNL1        0.0280
@<TRIPOS>BOND
     1    28    25    1
     2    25    26    1
     3    25    27    1
     4    25    21    1
     5    23    21   ar
     6    23    24   ar
     7    21    20   ar
     8    24    19   ar
     9    97    95    1
    10    96    95    1
    11    98    95    1
    12    95    93    1
    13    20    19   ar
    14    20    22    1
    15    18    15    1
    16    19    16    1
    17    30    29    1
    18    15    16   am
    19    15    13    1
    20    32    29    1
    21    93    94    1
    22    93    99    1
    23    93    90    1
    24    16    17    2
    25   102    99    1
    26    29    13    1
    27    29    31    1
    28   100    99    1
    29    91    90    1
    30    99   101    1
    31    13    10    1
    32    13    14    1
    33    11    10    2
    34    90    92    1
    35    90     1    1
    36     6     3    1
    37    10     9   am
    38    70    67    1
    39     3     1    1
    40     3     4   am
    41    71    69    1
    42     1     2    1
    43     1    43    1
    44    67    69   ar
    45    67    65   ar
    46     8     7    1
    47     9    12    1
    48     9     7    1
    49    44    43    2
    50    69    61   ar
    51    68    65    1
    52    56    55    2
    53     7     4    1
    54     7    33    1
    55    43    45   am
    56    65    63   ar
    57     4     5    2
    58    57    55    1
    59    57    58    1
    60    41    39    1
    61    55    52    1
    62    61    58    1
    63    61    62   ar
    64    36    35    1
    65    51    49    1
    66    63    62   ar
    67    63    66    1
    68    33    39    1
    69    33    35    1
    70    33    34    1
    71    45    46    1
    72    45    47    1
    73    39    40    1
    74    39    42    1
    75    58    60    1
    76    58    59    1
    77    62    64    1
    78    35    37    1
    79    35    38    1
    80    48    47    1
    81    52    49    1
    82    52    54    1
    83    52    53    1
    84    49    47    1
    85    49    50    1
    86    47    72    1
    87    87    75    1
    88    79    76    1
    89    72    75    1
    90    72    74    1
    91    72    73    1
    92    75    76    1
    93    75    83    1
    94    86    83    1
    95    76    78    1
    96    76    77    1
    97    83    88    1
    98    83    80    1
    99    82    77    1
   100    77    80    1
   101    77    81    1
   102    88    89    1
   103    80    85    1
   104    80    84    1
@<TRIPOS>MOLECULE
crystal_redock_e32_er3_1.pdbqt
 102 104 0 0 0
SMALL
GASTEIGER

@<TRIPOS>ATOM
      1 C         -36.4680   16.0620   26.4850 C.3     1  UNL1        0.0890
      2 H         -37.0620   16.6090   27.2170 H       1  UNL1        0.0870
      3 N         -35.0670   16.2440   26.8340 N.am    1  UNL1       -0.3460
      4 C         -34.6710   17.2260   27.9080 C.2     1  UNL1        0.2410
      5 O         -35.4980   17.8600   28.4760 O.2     1  UNL1       -0.2710
      6 H         -34.3780   15.6970   26.3370 H       1  UNL1        0.1630
      7 C         -33.2160   17.3970   28.2600 C.3     1  UNL1        0.0920
      8 H         -33.1380   17.9130   29.2170 H       1  UNL1        0.0880
      9 N         -32.5940   16.0800   28.4240 N.am    1  UNL1       -0.3460
     10 C         -31.7320   15.8270   29.5520 C.2     1  UNL1        0.2400
     11 O         -31.5270   16.6710   30.3360 O.2     1  UNL1       -0.2710
     12 H         -32.7600   15.3420   27.7550 H       1  UNL1        0.1630
     13 C         -31.0700   14.4240   29.7200 C.3     1  UNL1        0.0860
     14 H         -30.4010   14.3730   30.5790 H       1  UNL1        0.0860
     15 N         -32.1110   13.4350   29.9440 N.am    1  UNL1       -0.3430
     16 C         -31.7860   12.1920   30.6470 C.2     1  UNL1        0.2730
     17 O         -30.6830   11.9950   31.0250 O.2     1  UNL1       -0.2660
     18 H         -33.0500   13.6090   29.6150 H       1  UNL1        0.1630
     19 C         -32.8770   11.1380   30.8920 C.ar    1  UNL1        0.1540
     20 C         -33.2370   10.0500   30.0350 C.ar    1  UNL1       -0.0170
     21 C         -34.2850    9.3860   30.7110 C.ar    1  UNL1        0.0770
     22 H         -32.8040    9.7830   29.0710 H       1  UNL1        0.0910
     23 O         -34.4930   10.0240   31.8250 O.2     1  UNL1       -0.2180
     24 N         -33.6840   11.0510   31.9530 N.ar    1  UNL1       -0.1230
     25 C         -35.0300    8.1500   30.2260 C.3     1  UNL1       -0.0290
     26 H         -35.9270    8.0060   30.8280 H       1  UNL1        0.0360
     27 H         -35.3120    8.2830   29.1810 H       1  UNL1        0.0360
     28 H         -34.3860    7.2760   30.3200 H       1  UNL1        0.0360
     29 C         -30.2910   14.0800   28.4760 C.3     1  UNL1       -0.0490
     30 H         -30.6010   14.7350   27.6610 H       1  UNL1        0.0300
     31 H         -29.2260   14.2160   28.6650 H       1  UNL1        0.0300
     32 H         -30.4820   13.0430   28.2010 H       1  UNL1        0.0300
     33 C         -32.4940   18.1710   27.1180 C.3     1  UNL1       -0.0330
     34 H         -31.4370   18.2290   27.3780 H       1  UNL1        0.0420
     35 C         -32.6010   17.4090   25.7600 C.3     1  UNL1       -0.0710
     36 H         -33.4870   17.7490   25.2220 H       1  UNL1        0.0280
     37 H         -31.7130   17.6090   25.1610 H       1  UNL1        0.0280
     38 H         -32.6800   16.3390   25.9490 H       1  UNL1        0.0280
     39 C         -33.0430   19.6280   26.9950 C.3     1  UNL1       -0.0710
     40 H         -33.6400   19.7160   26.0870 H       1  UNL1        0.0280
     41 H         -33.6630   19.8570   27.8630 H       1  UNL1        0.0280
     42 H         -32.2090   20.3280   26.9520 H       1  UNL1        0.0280
     43 C         -36.7850   14.5390   26.4900 C.2     1  UNL1        0.2400
     44 O         -37.8740   14.1630   26.7830 O.2     1  UNL1       -0.2710
     45 N         -35.7340   13.5490   26.1190 N.am    1  UNL1       -0.3550
     46 H         -34.8070   13.8570   25.8630 H       1  UNL1        0.1620
     47 C         -36.0520   12.1050   26.1270 C.3     1  UNL1        0.0130
     48 H         -36.9640   11.9650   26.7080 H       1  UNL1        0.0720
     49 C         -34.9110   11.3450   26.7670 C.3     1  UNL1       -0.0380
     50 H         -35.3020   10.9680   27.7120 H       1  UNL1        0.0360
     51 H         -34.5590   10.6490   26.0060 H       1  UNL1        0.0360
     52 C         -33.7120   12.2510   27.1200 C.3     1  UNL1        0.0180
     53 H         -33.9330   13.2210   26.6760 H       1  UNL1        0.0480
     54 H         -33.5820   12.1620   28.1990 H       1  UNL1        0.0480
     55 C         -32.3700   11.7880   26.4870 C.2     1  UNL1        0.2590
     56 O         -31.6500   11.0470   27.0750 O.2     1  UNL1       -0.2650
     57 O         -32.0030   12.2700   25.2000 O.3     1  UNL1       -0.3170
     58 C         -31.7620   13.6790   25.1530 C.3     1  UNL1        0.0520
     59 H         -32.7330   14.1390   24.9670 H       1  UNL1        0.0820
     60 H         -31.2130   13.9150   26.0650 H       1  UNL1        0.0820
     61 C         -30.8410   13.9670   23.9380 C.ar    1  UNL1       -0.0340
     62 C         -30.3590   12.9160   23.1640 C.ar    1  UNL1       -0.0750
     63 C         -29.5320   13.1740   22.0720 C.ar    1  UNL1       -0.0820
     64 H         -30.6300   11.8900   23.4130 H       1  UNL1        0.0840
     65 C         -29.1840   14.4900   21.7570 C.ar    1  UNL1       -0.0830
     66 H         -29.1570   12.3480   21.4670 H       1  UNL1        0.0830
     67 C         -29.6640   15.5360   22.5340 C.ar    1  UNL1       -0.0820
     68 H         -28.5380   14.7010   20.9040 H       1  UNL1        0.0830
     69 C         -30.4930   15.2830   23.6240 C.ar    1  UNL1       -0.0750
     70 H         -29.3880   16.5620   22.2860 H       1  UNL1        0.0830
     71 H         -30.8670   16.1090   24.2290 H       1  UNL1        0.0840
     72 C         -36.2540   11.6120   24.6960 C.3     1  UNL1       -0.0390
     73 H         -35.7030   12.3130   24.0680 H       1  UNL1        0.0360
     74 H         -35.9750   10.5580   24.7100 H       1  UNL1        0.0360
     75 C         -37.7910   11.6890   24.2540 C.3     1  UNL1       -0.0010
     76 C         -38.2540   10.2590   23.5860 C.3     1  UNL1       -0.0350
     77 C         -38.8380   10.5050   22.3890 C.3     1  UNL1        0.0850
     78 H         -37.3770    9.6670   23.3260 H       1  UNL1        0.0360
     79 H         -39.0570    9.8140   24.1740 H       1  UNL1        0.0360
     80 N         -38.5220   11.9370   22.0300 N.4     1  UNL1       -0.0490
     81 H         -38.3390    9.8430   21.6810 H       1  UNL1        0.0750
     82 H         -39.9090   10.4100   22.5620 H       1  UNL1        0.0750
     83 C         -37.9820   12.6260   23.3870 C.3     1  UNL1        0.1930
     84 H         -37.7650   11.9050   21.3620 H       1  UNL1        0.2800
     85 H         -39.4000   12.3680   21.7780 H       1  UNL1        0.2800
     86 H         -38.6220   13.2980   23.9590 H       1  UNL1        0.1290
     87 H         -38.4270   12.0980   25.0390 H       1  UNL1        0.0460
     88 O         -36.7900   13.3670   23.1220 O.3     1  UNL1       -0.3690
     89 H         -36.4890   13.1810   22.2300 H       1  UNL1        0.2120
     90 C         -36.7110   16.6300   25.0960 C.3     1  UNL1       -0.0350
     91 H         -35.7220   16.7470   24.6540 H       1  UNL1        0.0370
     92 H         -37.4390   15.9630   24.6340 H       1  UNL1        0.0370
     93 C         -37.3590   18.0510   25.1050 C.3     1  UNL1       -0.0590
     94 H         -37.9380   18.1570   24.1880 H       1  UNL1        0.0380
     95 C         -38.3360   18.2460   26.3090 C.3     1  UNL1       -0.0730
     96 H         -38.0250   19.1110   26.8930 H       1  UNL1        0.0280
     97 H         -39.3470   18.4040   25.9360 H       1  UNL1        0.0280
     98 H         -38.3170   17.3570   26.9390 H       1  UNL1        0.0280
     99 C         -36.2860   19.1420   25.0930 C.3     1  UNL1       -0.0730
    100 H         -35.4520   18.8390   25.7270 H       1  UNL1        0.0280
    101 H         -35.9300   19.2920   24.0740 H       1  UNL1        0.0280
    102 H         -36.7090   20.0730   25.4700 H       1  UNL1        0.0280
@<TRIPOS>BOND
     1    68    65    1
     2    84    80    1
     3    66    63    1
     4    81    77    1
     5    65    63   ar
     6    65    67   ar
     7    85    80    1
     8    80    77    1
     9    80    83    1
    10    63    62   ar
    11    89    88    1
    12    70    67    1
    13    77    82    1
    14    77    76    1
    15    67    69   ar
    16    88    83    1
    17    62    64    1
    18    62    61   ar
    19    78    76    1
    20    83    86    1
    21    83    75    1
    22    76    79    1
    23    76    75    1
    24    69    61   ar
    25    69    71    1
    26    61    58    1
    27    73    72    1
    28   101    99    1
    29    94    93    1
    30    75    72    1
    31    75    87    1
    32    92    90    1
    33    91    90    1
    34    72    74    1
    35    72    47    1
    36    59    58    1
    37    99    93    1
    38    99   102    1
    39    99   100    1
    40    90    93    1
    41    90     1    1
    42    93    95    1
    43    58    57    1
    44    58    60    1
    45    37    35    1
    46    57    55    1
    47    36    35    1
    48    35    38    1
    49    35    33    1
    50    46    45    1
    51    97    95    1
    52    51    49    1
    53    40    39    1
    54    45    47    1
    55    45    43   am
    56    47    48    1
    57    47    49    1
    58    95    96    1
    59    95    98    1
    60     6     3    1
    61     1    43    1
    62     1     3    1
    63     1     2    1
    64    55    56    2
    65    55    52    1
    66    43    44    2
    67    53    52    1
    68    49    52    1
    69    49    50    1
    70     3     4   am
    71    42    39    1
    72    39    33    1
    73    39    41    1
    74    33    34    1
    75    33     7    1
    76    52    54    1
    77    30    29    1
    78    12     9    1
    79     4     7    1
    80     4     5    2
    81    32    29    1
    82     7     9    1
    83     7     8    1
    84     9    10   am
    85    29    31    1
    86    29    13    1
    87    22    20    1
    88    27    25    1
    89    10    13    1
    90    10    11    2
    91    18    15    1
    92    13    15    1
    93    13    14    1
    94    15    16   am
    95    20    21   ar
    96    20    19   ar
    97    25    28    1
    98    25    21    1
    99    25    26    1
   100    16    19    1
   101    16    17    2
   102    21    23   ar
   103    19    24   ar
   104    23    24   ar
@<TRIPOS>MOLECULE
crystal_redock_e32_er3_1.pdbqt
 102 104 0 0 0
SMALL
GASTEIGER

@<TRIPOS>ATOM
      1 C         -31.1450   14.5200   23.8880 C.3     1  UNL1        0.0890
      2 H         -30.1120   14.7660   24.1350 H       1  UNL1        0.0870
      3 N         -31.3380   13.1050   24.1670 N.am    1  UNL1       -0.3460
      4 C         -30.5470   12.0650   23.4130 C.2     1  UNL1        0.2410
      5 O         -29.7630   12.3920   22.5840 O.2     1  UNL1       -0.2710
      6 H         -32.0110   12.8470   24.8750 H       1  UNL1        0.1630
      7 C         -30.7550   10.6050   23.7190 C.3     1  UNL1        0.0920
      8 H         -30.0530   10.2980   24.4950 H       1  UNL1        0.0880
      9 N         -32.1060   10.4040   24.2520 N.am    1  UNL1       -0.3460
     10 C         -32.3250   10.4030   25.6770 C.2     1  UNL1        0.2400
     11 O         -31.4260   10.5600   26.4100 O.2     1  UNL1       -0.2710
     12 H         -32.8910   10.2660   23.6320 H       1  UNL1        0.1630
     13 C         -33.7650   10.1860   26.2380 C.3     1  UNL1        0.0860
     14 H         -33.7740    9.9840   27.3090 H       1  UNL1        0.0860
     15 N         -34.5370   11.4000   26.0370 N.am    1  UNL1       -0.3430
     16 C         -35.4880   11.8290   27.0650 C.2     1  UNL1        0.2730
     17 O         -35.6260   11.1880   28.0490 O.2     1  UNL1       -0.2660
     18 H         -34.4150   11.9400   25.1920 H       1  UNL1        0.1630
     19 C         -36.3100   13.1120   26.8670 C.ar    1  UNL1        0.1540
     20 C         -35.8150   14.4140   26.5400 C.ar    1  UNL1       -0.0170
     21 C         -36.9640   15.2330   26.4710 C.ar    1  UNL1        0.0770
     22 H         -34.7810   14.7190   26.3790 H       1  UNL1        0.0910
     23 O         -37.9930   14.4790   26.7280 O.2     1  UNL1       -0.2180
     24 N         -37.6370   13.2370   26.9620 N.ar    1  UNL1       -0.1230
     25 C         -36.9930   16.7220   26.1540 C.3     1  UNL1       -0.0290
     26 H         -38.0250   17.0710   26.1360 H       1  UNL1        0.0360
     27 H         -36.4390   17.2670   26.9190 H       1  UNL1        0.0360
     28 H         -36.5330   16.8960   25.1810 H       1  UNL1        0.0360
     29 C         -34.4190    9.0330   25.5200 C.3     1  UNL1       -0.0490
     30 H         -35.3310    8.7490   26.0430 H       1  UNL1        0.0300
     31 H         -34.6630    9.3320   24.5010 H       1  UNL1        0.0300
     32 H         -33.7340    8.1840   25.4960 H       1  UNL1        0.0300
     33 C         -30.5860    9.7730   22.4140 C.3     1  UNL1       -0.0330
     34 H         -30.5910   10.4700   21.5760 H       1  UNL1        0.0420
     35 C         -29.2170    9.0240   22.3910 C.3     1  UNL1       -0.0710
     36 H         -29.1010    8.4500   23.3110 H       1  UNL1        0.0280
     37 H         -29.1860    8.3490   21.5360 H       1  UNL1        0.0280
     38 H         -28.4070    9.7490   22.3120 H       1  UNL1        0.0280
     39 C         -31.7780    8.7800   22.2250 C.3     1  UNL1       -0.0710
     40 H         -32.5360    9.2400   21.5920 H       1  UNL1        0.0280
     41 H         -31.4170    7.8650   21.7550 H       1  UNL1        0.0280
     42 H         -32.2100    8.5430   23.1970 H       1  UNL1        0.0280
     43 C         -32.1630   15.3350   24.7370 C.2     1  UNL1        0.2400
     44 O         -33.2320   15.5950   24.2880 O.2     1  UNL1       -0.2710
     45 N         -31.8070   15.7830   26.1130 N.am    1  UNL1       -0.3550
     46 H         -30.9030   15.5640   26.5060 H       1  UNL1        0.1620
     47 C         -32.7850   16.5560   26.9080 C.3     1  UNL1        0.0130
     48 H         -33.7690   16.4120   26.4620 H       1  UNL1        0.0720
     49 C         -32.4130   18.0210   26.8720 C.3     1  UNL1       -0.0380
     50 H         -32.3870   18.3440   27.9130 H       1  UNL1        0.0360
     51 H         -31.5130   18.0810   26.2600 H       1  UNL1        0.0360
     52 C         -33.4760   18.8930   26.1710 C.3     1  UNL1        0.0180
     53 H         -32.9260   19.7010   25.6900 H       1  UNL1        0.0480
     54 H         -34.0720   18.2060   25.5700 H       1  UNL1        0.0480
     55 C         -34.4700   19.5780   27.1500 C.2     1  UNL1        0.2590
     56 O         -34.5220   19.2420   28.2890 O.2     1  UNL1       -0.2650
     57 O         -35.3290   20.6040   26.6670 O.3     1  UNL1       -0.3170
     58 C         -36.7220   20.3120   26.8090 C.3     1  UNL1        0.0520
     59 H         -36.7730   19.2800   27.1550 H       1  UNL1        0.0820
     60 H         -37.1300   21.1130   27.4240 H       1  UNL1        0.0820
     61 C         -37.3730   20.3920   25.4030 C.ar    1  UNL1       -0.0340
     62 C         -36.6540   20.0010   24.2780 C.ar    1  UNL1       -0.0750
     63 C         -37.2380   20.0730   23.0150 C.ar    1  UNL1       -0.0820
     64 H         -35.6310   19.6380   24.3870 H       1  UNL1        0.0840
     65 C         -38.5480   20.5410   22.8780 C.ar    1  UNL1       -0.0830
     66 H         -36.6720   19.7640   22.1360 H       1  UNL1        0.0830
     67 C         -39.2610   20.9330   24.0020 C.ar    1  UNL1       -0.0820
     68 H         -39.0130   20.6000   21.8940 H       1  UNL1        0.0830
     69 C         -38.6810   20.8610   25.2670 C.ar    1  UNL1       -0.0750
     70 H         -40.2820   21.3000   23.8920 H       1  UNL1        0.0830
     71 H         -39.2480   21.1700   26.1460 H       1  UNL1        0.0840
     72 C         -32.7810   16.0640   28.3530 C.3     1  UNL1       -0.0390
     73 H         -32.4280   16.9080   28.9460 H       1  UNL1        0.0360
     74 H         -33.7770   15.6570   28.5250 H       1  UNL1        0.0360
     75 C         -31.7380   14.8670   28.5690 C.3     1  UNL1       -0.0010
     76 C         -32.5350   13.4300   28.6080 C.3     1  UNL1       -0.0350
     77 C         -32.1570   12.7510   29.7180 C.3     1  UNL1        0.0850
     78 H         -33.6010   13.5980   28.7630 H       1  UNL1        0.0360
     79 H         -32.1970   12.7920   27.7910 H       1  UNL1        0.0360
     80 N         -31.4250   13.7290   30.6050 N.4     1  UNL1       -0.0490
     81 H         -33.0840   12.4520   30.2060 H       1  UNL1        0.0750
     82 H         -31.4550   11.9940   29.3700 H       1  UNL1        0.0750
     83 C         -31.0890   15.0060   29.6760 C.3     1  UNL1        0.1930
     84 H         -32.0810   14.0140   31.3180 H       1  UNL1        0.2800
     85 H         -30.5570   13.2830   30.8660 H       1  UNL1        0.2800
     86 H         -30.0790   15.1640   29.2970 H       1  UNL1        0.1290
     87 H         -30.8810   14.9410   27.8980 H       1  UNL1        0.0460
     88 O         -31.4350   16.2140   30.3560 O.3     1  UNL1       -0.3690
     89 H         -30.7410   16.8650   30.2250 H       1  UNL1        0.2120
     90 C         -31.3950   14.7720   22.4090 C.3     1  UNL1       -0.0350
     91 H         -31.2300   13.8120   21.9210 H       1  UNL1        0.0370
     92 H         -32.3750   15.2480   22.3590 H       1  UNL1        0.0370
     93 C         -30.3840   15.7740   21.7650 C.3     1  UNL1       -0.0590
     94 H         -30.6610   16.7770   22.0890 H       1  UNL1        0.0380
     95 C         -28.9160   15.5100   22.2300 C.3     1  UNL1       -0.0730
     96 H         -28.6490   16.2210   23.0110 H       1  UNL1        0.0280
     97 H         -28.8350   14.4960   22.6200 H       1  UNL1        0.0280
     98 H         -28.2400   15.6290   21.3840 H       1  UNL1        0.0280
     99 C         -30.4850   15.7460   20.2380 C.3     1  UNL1       -0.0730
    100 H         -29.5290   16.0420   19.8050 H       1  UNL1        0.0280
    101 H         -30.7360   14.7370   19.9080 H       1  UNL1        0.0280
    102 H         -31.2620   16.4370   19.9120 H       1  UNL1        0.0280
@<TRIPOS>BOND
     1   100    99    1
     2   101    99    1
     3   102    99    1
     4    99    93    1
     5    98    95    1
     6    37    35    1
     7    34    33    1
     8    40    39    1
     9    41    39    1
    10    93    94    1
    11    93    95    1
    12    93    90    1
    13    68    65    1
    14    91    90    1
    15    66    63    1
    16    39    33    1
    17    39    42    1
    18    95    97    1
    19    95    96    1
    20    38    35    1
    21    92    90    1
    22    35    33    1
    23    35    36    1
    24    90     1    1
    25    33     7    1
    26     5     4    2
    27    65    63   ar
    28    65    67   ar
    29    63    62   ar
    30     4     7    1
    31     4     3   am
    32    12     9    1
    33     7     9    1
    34     7     8    1
    35     1     2    1
    36     1     3    1
    37     1    43    1
    38    70    67    1
    39    67    69   ar
    40     3     6    1
    41     9    10   am
    42    62    64    1
    43    62    61   ar
    44    44    43    2
    45    31    29    1
    46    43    45   am
    47    28    25    1
    48    18    15    1
    49    69    61   ar
    50    69    71    1
    51    61    58    1
    52    32    29    1
    53    29    30    1
    54    29    13    1
    55    54    52    1
    56    10    13    1
    57    10    11    2
    58    53    52    1
    59    15    13    1
    60    15    16   am
    61    45    46    1
    62    45    47    1
    63    26    25    1
    64    25    21    1
    65    25    27    1
    66    52    49    1
    67    52    55    1
    68    13    14    1
    69    51    49    1
    70    22    20    1
    71    48    47    1
    72    21    20   ar
    73    21    23   ar
    74    20    19   ar
    75    57    58    1
    76    57    55    1
    77    23    24   ar
    78    58    59    1
    79    58    60    1
    80    19    24   ar
    81    19    16    1
    82    49    47    1
    83    49    50    1
    84    47    72    1
    85    16    17    2
    86    55    56    2
    87    79    76    1
    88    87    75    1
    89    72    74    1
    90    72    75    1
    91    72    73    1
    92    75    76    1
    93    75    83    1
    94    76    78    1
    95    76    77    1
    96    86    83    1
    97    82    77    1
    98    83    88    1
    99    83    80    1
   100    77    81    1
   101    77    80    1
   102    89    88    1
   103    80    85    1
   104    80    84    1
@<TRIPOS>MOLECULE
crystal_redock_e32_er3_1.pdbqt
 102 104 0 0 0
SMALL
GASTEIGER

@<TRIPOS>ATOM
      1 C         -30.9400   13.8970   24.6340 C.3     1  UNL1        0.0890
      2 H         -29.9630   13.7640   25.1000 H       1  UNL1        0.0870
      3 N         -31.3760   12.5950   24.1500 N.am    1  UNL1       -0.3460
      4 C         -31.2780   11.3800   25.0380 C.2     1  UNL1        0.2410
      5 O         -30.8430   11.4740   26.1380 O.2     1  UNL1       -0.2710
      6 H         -31.7410   12.5360   23.2100 H       1  UNL1        0.1630
      7 C         -31.7390   10.0420   24.5220 C.3     1  UNL1        0.0920
      8 H         -31.3120    9.2530   25.1410 H       1  UNL1        0.0880
      9 N         -33.1970    9.9470   24.6440 N.am    1  UNL1       -0.3460
     10 C         -33.7820    9.2340   25.7530 C.2     1  UNL1        0.2400
     11 O         -33.0950    8.7310   26.5550 O.2     1  UNL1       -0.2710
     12 H         -33.8020   10.3750   23.9580 H       1  UNL1        0.1630
     13 C         -35.3340    9.1340   25.8750 C.3     1  UNL1        0.0860
     14 H         -35.6570    8.7440   26.8400 H       1  UNL1        0.0860
     15 N         -35.9040   10.4650   25.7540 N.am    1  UNL1       -0.3430
     16 C         -36.2660   11.2080   26.9630 C.2     1  UNL1        0.2730
     17 O         -36.0970   10.7250   28.0280 O.2     1  UNL1       -0.2660
     18 H         -36.0470   10.8700   24.8390 H       1  UNL1        0.1630
     19 C         -36.8670   12.6180   26.8490 C.ar    1  UNL1        0.1540
     20 C         -36.1710   13.8350   26.5670 C.ar    1  UNL1       -0.0170
     21 C         -37.1690   14.8350   26.5730 C.ar    1  UNL1        0.0770
     22 H         -35.1040   13.9720   26.3860 H       1  UNL1        0.0910
     23 O         -38.3020   14.2490   26.8270 O.2     1  UNL1       -0.2180
     24 N         -38.1520   12.9560   26.9930 N.ar    1  UNL1       -0.1230
     25 C         -36.9560   16.3230   26.3250 C.3     1  UNL1       -0.0290
     26 H         -37.8230   16.7320   25.8070 H       1  UNL1        0.0360
     27 H         -36.8280   16.8350   27.2780 H       1  UNL1        0.0360
     28 H         -36.0660   16.4660   25.7130 H       1  UNL1        0.0360
     29 C         -35.8700    8.2410   24.7850 C.3     1  UNL1       -0.0490
     30 H         -36.5900    7.5410   25.2090 H       1  UNL1        0.0300
     31 H         -36.3600    8.8500   24.0250 H       1  UNL1        0.0300
     32 H         -35.0480    7.6860   24.3320 H       1  UNL1        0.0300
     33 C         -31.3360    9.8970   23.0250 C.3     1  UNL1       -0.0330
     34 H         -31.5620   10.8410   22.5300 H       1  UNL1        0.0420
     35 C         -29.8030    9.6430   22.8720 C.3     1  UNL1       -0.0710
     36 H         -29.3770   10.3860   22.1980 H       1  UNL1        0.0280
     37 H         -29.3230    9.7180   23.8470 H       1  UNL1        0.0280
     38 H         -29.6400    8.6460   22.4620 H       1  UNL1        0.0280
     39 C         -32.1680    8.7730   22.3280 C.3     1  UNL1       -0.0710
     40 H         -31.8260    7.7980   22.6760 H       1  UNL1        0.0280
     41 H         -33.2240    8.8970   22.5750 H       1  UNL1        0.0280
     42 H         -32.0380    8.8410   21.2480 H       1  UNL1        0.0280
     43 C         -32.0010   14.4320   25.6380 C.2     1  UNL1        0.2400
     44 O         -33.0720   14.7640   25.2450 O.2     1  UNL1       -0.2710
     45 N         -31.6830   14.5230   27.0920 N.am    1  UNL1       -0.3550
     46 H         -30.7780   14.2400   27.4380 H       1  UNL1        0.1620
     47 C         -32.7030   15.0330   28.0340 C.3     1  UNL1        0.0130
     48 H         -33.6850   14.8560   27.5940 H       1  UNL1        0.0720
     49 C         -32.4910   16.5150   28.2460 C.3     1  UNL1       -0.0380
     50 H         -32.7220   16.6980   29.2960 H       1  UNL1        0.0360
     51 H         -31.4930   16.7270   27.8620 H       1  UNL1        0.0360
     52 C         -33.4690   17.3840   27.4250 C.3     1  UNL1        0.0180
     53 H         -33.5310   16.9120   26.4450 H       1  UNL1        0.0480
     54 H         -34.3640   17.4830   28.0410 H       1  UNL1        0.0480
     55 C         -32.9600   18.8300   27.1730 C.2     1  UNL1        0.2590
     56 O         -31.8620   19.0200   26.7600 O.2     1  UNL1       -0.2650
     57 O         -33.8190   19.9290   27.4520 O.3     1  UNL1       -0.3170
     58 C         -35.1410   19.5500   27.8440 C.3     1  UNL1        0.0520
     59 H         -35.1360   18.4610   27.8850 H       1  UNL1        0.0820
     60 H         -35.3610   20.1280   28.7410 H       1  UNL1        0.0820
     61 C         -36.1190   19.9940   26.7230 C.ar    1  UNL1       -0.0340
     62 C         -35.8800   19.6250   25.4040 C.ar    1  UNL1       -0.0750
     63 C         -36.7570   20.0240   24.3970 C.ar    1  UNL1       -0.0820
     64 H         -35.0050   19.0220   25.1580 H       1  UNL1        0.0840
     65 C         -37.8770   20.7980   24.7130 C.ar    1  UNL1       -0.0830
     66 H         -36.5680   19.7310   23.3640 H       1  UNL1        0.0830
     67 C         -38.1090   21.1680   26.0310 C.ar    1  UNL1       -0.0820
     68 H         -38.5680   21.1140   23.9320 H       1  UNL1        0.0830
     69 C         -37.2360   20.7690   27.0410 C.ar    1  UNL1       -0.0750
     70 H         -38.9820   21.7740   26.2740 H       1  UNL1        0.0830
     71 H         -37.4260   21.0620   28.0740 H       1  UNL1        0.0840
     72 C         -32.5820   14.3040   29.3710 C.3     1  UNL1       -0.0390
     73 H         -31.9250   14.9240   29.9810 H       1  UNL1        0.0360
     74 H         -33.6070   14.1160   29.6920 H       1  UNL1        0.0360
     75 C         -31.8700   12.8790   29.2060 C.3     1  UNL1       -0.0010
     76 C         -33.0000   11.6840   29.2050 C.3     1  UNL1       -0.0350
     77 C         -32.6420   10.7440   30.1130 C.3     1  UNL1        0.0850
     78 H         -33.9450   12.0640   29.5920 H       1  UNL1        0.0360
     79 H         -32.9750   11.1460   28.2580 H       1  UNL1        0.0360
     80 N         -31.5480   11.3450   30.9620 N.4     1  UNL1       -0.0490
     81 H         -33.5260   10.5850   30.7310 H       1  UNL1        0.0750
     82 H         -32.2280    9.9210   29.5310 H       1  UNL1        0.0750
     83 C         -31.0400   12.6560   30.1700 C.3     1  UNL1        0.1930
     84 H         -31.9840   11.6390   31.8250 H       1  UNL1        0.2800
     85 H         -30.7980   10.6690   30.9810 H       1  UNL1        0.2800
     86 H         -30.0980   12.6420   29.6220 H       1  UNL1        0.1290
     87 H         -31.1410   12.8720   28.3950 H       1  UNL1        0.0460
     88 O         -30.9440   13.7660   31.0650 O.3     1  UNL1       -0.3690
     89 H         -30.0250   14.0320   31.1470 H       1  UNL1        0.2120
     90 C         -30.8230   14.8510   23.4560 C.3     1  UNL1       -0.0350
     91 H         -31.8070   14.8520   22.9870 H       1  UNL1        0.0370
     92 H         -30.4170   15.7730   23.8710 H       1  UNL1        0.0370
     93 C         -29.8140   14.3760   22.3630 C.3     1  UNL1       -0.0590
     94 H         -29.7780   13.2880   22.3970 H       1  UNL1        0.0380
     95 C         -30.2620   14.7940   20.9260 C.3     1  UNL1       -0.0730
     96 H         -30.4120   13.9030   20.3180 H       1  UNL1        0.0280
     97 H         -31.1950   15.3550   20.9850 H       1  UNL1        0.0280
     98 H         -29.4920   15.4180   20.4720 H       1  UNL1        0.0280
     99 C         -28.4020   14.8880   22.6640 C.3     1  UNL1       -0.0730
    100 H         -28.4160   15.4750   23.5820 H       1  UNL1        0.0280
    101 H         -27.7270   14.0400   22.7850 H       1  UNL1        0.0280
    102 H         -28.0580   15.5110   21.8390 H       1  UNL1        0.0280
@<TRIPOS>BOND
     1    96    95    1
     2    98    95    1
     3    95    97    1
     4    95    93    1
     5    42    39    1
     6   102    99    1
     7    36    35    1
     8    39    41    1
     9    39    40    1
    10    39    33    1
    11    93    94    1
    12    93    99    1
    13    93    90    1
    14    38    35    1
    15    34    33    1
    16    99   101    1
    17    99   100    1
    18    35    33    1
    19    35    37    1
    20    91    90    1
    21    33     7    1
    22     6     3    1
    23    66    63    1
    24    90    92    1
    25    90     1    1
    26    68    65    1
    27    12     9    1
    28    31    29    1
    29     3     1    1
    30     3     4   am
    31    32    29    1
    32    63    65   ar
    33    63    62   ar
    34     7     9    1
    35     7     4    1
    36     7     8    1
    37     1     2    1
    38     1    43    1
    39     9    10   am
    40    65    67   ar
    41    29    30    1
    42    29    13    1
    43    18    15    1
    44     4     5    2
    45    64    62    1
    46    44    43    2
    47    62    61   ar
    48    43    45   am
    49    28    25    1
    50    10    13    1
    51    10    11    2
    52    15    13    1
    53    15    16   am
    54    26    25    1
    55    13    14    1
    56    67    70    1
    57    67    69   ar
    58    25    21    1
    59    25    27    1
    60    22    20    1
    61    53    52    1
    62    20    21   ar
    63    20    19   ar
    64    21    23   ar
    65    61    69   ar
    66    61    58    1
    67    56    55    2
    68    23    24   ar
    69    19    16    1
    70    19    24   ar
    71    16    17    2
    72    69    71    1
    73    45    46    1
    74    45    47    1
    75    55    52    1
    76    55    57    1
    77    52    54    1
    78    52    49    1
    79    57    58    1
    80    48    47    1
    81    58    59    1
    82    58    60    1
    83    51    49    1
    84    47    49    1
    85    47    72    1
    86    49    50    1
    87    79    76    1
    88    87    75    1
    89    76    75    1
    90    76    78    1
    91    76    77    1
    92    75    72    1
    93    75    83    1
    94    72    74    1
    95    72    73    1
    96    82    77    1
    97    86    83    1
    98    77    81    1
    99    77    80    1
   100    83    80    1
   101    83    88    1
   102    80    85    1
   103    80    84    1
   104    88    89    1
@<TRIPOS>MOLECULE
crystal_redock_e32_er3_1.pdbqt
 102 104 0 0 0
SMALL
GASTEIGER

@<TRIPOS>ATOM
      1 C         -33.0680   10.2950   26.2580 C.3     1  UNL1        0.0890
      2 H         -33.8010   10.6420   25.5290 H       1  UNL1        0.0870
      3 N         -32.3320    9.1960   25.6500 N.am    1  UNL1       -0.3460
      4 C         -33.0300    8.2310   24.7260 C.2     1  UNL1        0.2410
      5 O         -34.1860    8.3570   24.4890 O.2     1  UNL1       -0.2710
      6 H         -31.3490    9.1050   25.8670 H       1  UNL1        0.1630
      7 C         -32.2520    7.1030   24.1020 C.3     1  UNL1        0.0920
      8 H         -32.7790    6.7510   23.2150 H       1  UNL1        0.0880
      9 N         -30.9440    7.5970   23.6600 N.am    1  UNL1       -0.3460
     10 C         -30.7580    8.0210   22.2950 C.2     1  UNL1        0.2400
     11 O         -31.6490    7.9710   21.5370 O.2     1  UNL1       -0.2710
     12 H         -30.1650    7.6440   24.3020 H       1  UNL1        0.1630
     13 C         -29.3620    8.5430   21.8300 C.3     1  UNL1        0.0860
     14 H         -29.0620    8.1390   20.8630 H       1  UNL1        0.0860
     15 N         -29.4270    9.9870   21.6760 N.am    1  UNL1       -0.3430
     16 C         -29.9000   10.8110   22.7900 C.2     1  UNL1        0.2730
     17 O         -30.2290   10.3020   23.8050 O.2     1  UNL1       -0.2660
     18 H         -29.1450   10.4130   20.8040 H       1  UNL1        0.1630
     19 C         -29.9710   12.3390   22.6420 C.ar    1  UNL1        0.1540
     20 C         -30.7190   13.2520   23.4510 C.ar    1  UNL1       -0.0170
     21 C         -30.4470   14.5270   22.9060 C.ar    1  UNL1        0.0770
     22 H         -31.3610   13.0250   24.3030 H       1  UNL1        0.0910
     23 O         -29.6370   14.3550   21.9040 O.2     1  UNL1       -0.2180
     24 N         -29.3450   13.0860   21.7300 N.ar    1  UNL1       -0.1230
     25 C         -31.0010   15.8560   23.4030 C.3     1  UNL1       -0.0290
     26 H         -30.6290   16.6630   22.7720 H       1  UNL1        0.0360
     27 H         -32.0900   15.8340   23.3600 H       1  UNL1        0.0360
     28 H         -30.6810   16.0220   24.4310 H       1  UNL1        0.0360
     29 C         -28.3190    8.1790   22.8560 C.3     1  UNL1       -0.0490
     30 H         -28.8050    7.7410   23.7280 H       1  UNL1        0.0300
     31 H         -27.6250    7.4570   22.4270 H       1  UNL1        0.0300
     32 H         -27.7750    9.0750   23.1550 H       1  UNL1        0.0300
     33 C         -32.0480    5.9700   25.1500 C.3     1  UNL1       -0.0330
     34 H         -31.0550    5.5500   24.9920 H       1  UNL1        0.0420
     35 C         -32.0950    6.5290   26.6070 C.3     1  UNL1       -0.0710
     36 H         -33.1160    6.4740   26.9850 H       1  UNL1        0.0280
     37 H         -31.4400    5.9360   27.2440 H       1  UNL1        0.0280
     38 H         -31.7630    7.5670   26.6080 H       1  UNL1        0.0280
     39 C         -33.0940    4.8270   24.9490 C.3     1  UNL1       -0.0710
     40 H         -33.4100    4.8030   23.9050 H       1  UNL1        0.0280
     41 H         -32.6430    3.8700   25.2140 H       1  UNL1        0.0280
     42 H         -33.9590    5.0080   25.5870 H       1  UNL1        0.0280
     43 C         -32.0580   11.4110   26.6500 C.2     1  UNL1        0.2400
     44 O         -30.8920   11.2300   26.5060 O.2     1  UNL1       -0.2710
     45 N         -32.5440   12.7090   27.1980 N.am    1  UNL1       -0.3550
     46 H         -33.5320   12.8760   27.3210 H       1  UNL1        0.1620
     47 C         -31.5710   13.7600   27.5650 C.3     1  UNL1        0.0130
     48 H         -30.6330   13.5420   27.0560 H       1  UNL1        0.0720
     49 C         -31.3610   13.7460   29.0630 C.3     1  UNL1       -0.0380
     50 H         -30.4170   13.2240   29.2230 H       1  UNL1        0.0360
     51 H         -31.4730   14.7810   29.3850 H       1  UNL1        0.0360
     52 C         -32.4410   12.9350   29.8120 C.3     1  UNL1        0.0180
     53 H         -32.8780   13.6230   30.5340 H       1  UNL1        0.0480
     54 H         -33.0650   12.4890   29.0370 H       1  UNL1        0.0480
     55 C         -31.8720   11.7490   30.6390 C.2     1  UNL1        0.2590
     56 O         -30.7280   11.7300   30.9580 O.2     1  UNL1       -0.2650
     57 O         -32.7330   10.6770   31.0020 O.3     1  UNL1       -0.3170
     58 C         -33.9830   11.0960   31.5570 C.3     1  UNL1        0.0520
     59 H         -33.7840   11.3080   32.6070 H       1  UNL1        0.0820
     60 H         -34.3470   11.8870   30.9010 H       1  UNL1        0.0820
     61 C         -34.9680    9.8990   31.4760 C.ar    1  UNL1       -0.0340
     62 C         -36.3260   10.0980   31.7050 C.ar    1  UNL1       -0.0750
     63 C         -37.2110    9.0240   31.6330 C.ar    1  UNL1       -0.0820
     64 H         -36.6970   11.0960   31.9410 H       1  UNL1        0.0840
     65 C         -36.7330    7.7450   31.3330 C.ar    1  UNL1       -0.0830
     66 H         -38.2750    9.1830   31.8110 H       1  UNL1        0.0830
     67 C         -35.3770    7.5510   31.1090 C.ar    1  UNL1       -0.0820
     68 H         -37.4180    6.8990   31.2740 H       1  UNL1        0.0830
     69 C         -34.4890    8.6220   31.1780 C.ar    1  UNL1       -0.0750
     70 H         -35.0070    6.5520   30.8780 H       1  UNL1        0.0830
     71 H         -33.4250    8.4620   31.0000 H       1  UNL1        0.0840
     72 C         -32.1020   15.1270   27.1380 C.3     1  UNL1       -0.0390
     73 H         -31.8400   15.8070   27.9500 H       1  UNL1        0.0360
     74 H         -31.7010   15.2940   26.1380 H       1  UNL1        0.0360
     75 C         -33.6990   15.1310   27.0150 C.3     1  UNL1       -0.0010
     76 C         -34.1410   15.5120   25.4770 C.3     1  UNL1       -0.0350
     77 C         -35.0470   16.5190   25.5210 C.3     1  UNL1        0.0850
     78 H         -33.2980   15.9510   24.9440 H       1  UNL1        0.0360
     79 H         -34.6970   14.6870   25.0330 H       1  UNL1        0.0360
     80 N         -35.0180   17.0790   26.9220 N.4     1  UNL1       -0.0490
     81 H         -34.6750   17.2740   24.8280 H       1  UNL1        0.0750
     82 H         -36.0130   16.0480   25.3460 H       1  UNL1        0.0750
     83 C         -34.2280   15.9930   27.8180 C.3     1  UNL1        0.1930
     84 H         -34.4670   17.9240   26.8810 H       1  UNL1        0.2800
     85 H         -35.9780   17.1160   27.2340 H       1  UNL1        0.2800
     86 H         -34.7710   15.3290   28.4910 H       1  UNL1        0.1290
     87 H         -34.1490   14.2410   27.4540 H       1  UNL1        0.0460
     88 O         -33.2490   16.6430   28.6310 O.3     1  UNL1       -0.3690
     89 H         -33.6890   17.1390   29.3260 H       1  UNL1        0.2120
     90 C         -33.7790    9.7880   27.5020 C.3     1  UNL1       -0.0350
     91 H         -33.4030    8.7770   27.6580 H       1  UNL1        0.0370
     92 H         -33.6140   10.5540   28.2610 H       1  UNL1        0.0370
     93 C         -35.3260    9.6610   27.3320 C.3     1  UNL1       -0.0590
     94 H         -35.5630    9.8710   26.2890 H       1  UNL1        0.0380
     95 C         -35.8380    8.2210   27.6560 C.3     1  UNL1       -0.0730
     96 H         -35.1710    7.4880   27.2040 H       1  UNL1        0.0280
     97 H         -35.8570    8.0760   28.7360 H       1  UNL1        0.0280
     98 H         -36.8430    8.0940   27.2550 H       1  UNL1        0.0280
     99 C         -36.0570   10.7030   28.1830 C.3     1  UNL1       -0.0730
    100 H         -36.9850   10.9900   27.6880 H       1  UNL1        0.0280
    101 H         -36.2830   10.2800   29.1620 H       1  UNL1        0.0280
    102 H         -35.4240   11.5810   28.3050 H       1  UNL1        0.0280
@<TRIPOS>BOND
     1    18    15    1
     2    14    13    1
     3    11    10    2
     4    15    13    1
     5    15    16   am
     6    24    23   ar
     7    24    19   ar
     8    13    10    1
     9    13    29    1
    10    23    21   ar
    11    10     9   am
    12    31    29    1
    13    19    16    1
    14    19    20   ar
    15    26    25    1
    16    16    17    2
    17    29    32    1
    18    29    30    1
    19    21    25    1
    20    21    20   ar
    21     8     7    1
    22    27    25    1
    23    25    28    1
    24    20    22    1
    25     9     7    1
    26     9    12    1
    27    40    39    1
    28     7     4    1
    29     7    33    1
    30     5     4    2
    31     4     3   am
    32    81    77    1
    33    78    76    1
    34    39    33    1
    35    39    41    1
    36    39    42    1
    37    34    33    1
    38    79    76    1
    39    33    35    1
    40    82    77    1
    41    76    77    1
    42    76    75    1
    43    77    80    1
    44     2     1    1
    45     3     6    1
    46     3     1    1
    47    74    72    1
    48     1    43    1
    49     1    90    1
    50    94    93    1
    51    44    43    2
    52    35    38    1
    53    35    36    1
    54    35    37    1
    55    43    45   am
    56    84    80    1
    57    80    85    1
    58    80    83    1
    59    75    72    1
    60    75    87    1
    61    75    83    1
    62    48    47    1
    63    72    47    1
    64    72    73    1
    65    45    46    1
    66    45    47    1
    67    96    95    1
    68    98    95    1
    69    93    90    1
    70    93    95    1
    71    93    99    1
    72    90    91    1
    73    90    92    1
    74    47    49    1
    75    95    97    1
    76   100    99    1
    77    83    86    1
    78    83    88    1
    79    99   102    1
    80    99   101    1
    81    88    89    1
    82    54    52    1
    83    49    50    1
    84    49    51    1
    85    49    52    1
    86    52    53    1
    87    52    55    1
    88    55    56    2
    89    55    57    1
    90    70    67    1
    91    60    58    1
    92    71    69    1
    93    57    58    1
    94    67    69   ar
    95    67    65   ar
    96    69    61   ar
    97    68    65    1
    98    65    63   ar
    99    61    58    1
   100    61    62   ar
   101    58    59    1
   102    63    62   ar
   103    63    66    1
   104    62    64    1
@<TRIPOS>MOLECULE
crystal_redock_e32_er3_1.pdbqt
 102 104 0 0 0
SMALL
GASTEIGER

@<TRIPOS>ATOM
      1 C         -31.1660   14.0810   24.5810 C.3     1  UNL1        0.0890
      2 H         -30.2090   14.0350   25.1010 H       1  UNL1        0.0870
      3 N         -31.5080   12.7270   24.1720 N.am    1  UNL1       -0.3460
      4 C         -31.2840   11.5680   25.1110 C.2     1  UNL1        0.2410
      5 O         -30.8240   11.7490   26.1900 O.2     1  UNL1       -0.2710
      6 H         -31.8960   12.5930   23.2490 H       1  UNL1        0.1630
      7 C         -31.6480   10.1730   24.6720 C.3     1  UNL1        0.0920
      8 H         -30.9720    9.4610   25.1450 H       1  UNL1        0.0880
      9 N         -33.0040    9.8550   25.1310 N.am    1  UNL1       -0.3460
     10 C         -33.2270    8.7110   25.9810 C.2     1  UNL1        0.2400
     11 O         -32.3270    8.0350   26.3030 O.2     1  UNL1       -0.2710
     12 H         -33.7900   10.4280   24.8600 H       1  UNL1        0.1630
     13 C         -34.6720    8.3760   26.4630 C.3     1  UNL1        0.0860
     14 H         -34.8570    7.3040   26.5270 H       1  UNL1        0.0860
     15 N         -34.8580    8.9100   27.8020 N.am    1  UNL1       -0.3430
     16 C         -34.6690    8.0350   28.9610 C.2     1  UNL1        0.2730
     17 O         -34.3710    6.9020   28.8050 O.2     1  UNL1       -0.2660
     18 H         -35.1150    9.8790   27.9260 H       1  UNL1        0.1630
     19 C         -34.8600    8.5870   30.3820 C.ar    1  UNL1        0.1540
     20 C         -35.1120    9.9450   30.7560 C.ar    1  UNL1       -0.0170
     21 C         -35.2080    9.9230   32.1650 C.ar    1  UNL1        0.0770
     22 H         -35.2110   10.8140   30.1040 H       1  UNL1        0.0910
     23 O         -35.0320    8.6920   32.5460 O.2     1  UNL1       -0.2180
     24 N         -34.8270    7.8930   31.5240 N.ar    1  UNL1       -0.1230
     25 C         -35.4700   11.1200   33.0700 C.3     1  UNL1       -0.0290
     26 H         -36.5340   11.1760   33.2980 H       1  UNL1        0.0360
     27 H         -34.9060   11.0060   33.9950 H       1  UNL1        0.0360
     28 H         -35.1580   12.0330   32.5640 H       1  UNL1        0.0360
     29 C         -35.6750    8.9880   25.5190 C.3     1  UNL1       -0.0490
     30 H         -35.9830    8.2440   24.7840 H       1  UNL1        0.0300
     31 H         -36.5450    9.3250   26.0820 H       1  UNL1        0.0300
     32 H         -35.2220    9.8370   25.0080 H       1  UNL1        0.0300
     33 C         -31.5960   10.0880   23.1190 C.3     1  UNL1       -0.0330
     34 H         -31.9940   11.0230   22.7250 H       1  UNL1        0.0420
     35 C         -30.1290    9.9490   22.6060 C.3     1  UNL1       -0.0710
     36 H         -29.8120   10.8880   22.1520 H       1  UNL1        0.0280
     37 H         -29.4730    9.7100   23.4430 H       1  UNL1        0.0280
     38 H         -30.0770    9.1520   21.8640 H       1  UNL1        0.0280
     39 C         -32.4930    8.9210   22.5930 C.3     1  UNL1       -0.0710
     40 H         -32.0370    7.9660   22.8550 H       1  UNL1        0.0280
     41 H         -33.4820    8.9900   23.0470 H       1  UNL1        0.0280
     42 H         -32.5860    8.9950   21.5090 H       1  UNL1        0.0280
     43 C         -32.3030   14.6240   25.4930 C.2     1  UNL1        0.2400
     44 O         -33.4350   14.3470   25.2560 O.2     1  UNL1       -0.2710
     45 N         -31.9810   15.4830   26.6680 N.am    1  UNL1       -0.3550
     46 H         -31.0240   15.7210   26.8830 H       1  UNL1        0.1620
     47 C         -33.0730   15.9910   27.5260 C.3     1  UNL1        0.0130
     48 H         -34.0190   15.7710   27.0310 H       1  UNL1        0.0720
     49 C         -32.9170   17.4840   27.7030 C.3     1  UNL1       -0.0380
     50 H         -33.8940   17.8470   28.0230 H       1  UNL1        0.0360
     51 H         -32.0480   17.6150   28.3480 H       1  UNL1        0.0360
     52 C         -32.5930   18.2130   26.3810 C.3     1  UNL1        0.0180
     53 H         -31.5120   18.3480   26.3750 H       1  UNL1        0.0480
     54 H         -33.0740   17.6290   25.5960 H       1  UNL1        0.0480
     55 C         -33.2020   19.6400   26.2870 C.2     1  UNL1        0.2590
     56 O         -32.8990   20.3680   25.3970 O.2     1  UNL1       -0.2650
     57 O         -34.1180   20.0740   27.2850 O.3     1  UNL1       -0.3170
     58 C         -35.4390   20.3210   26.7950 C.3     1  UNL1        0.0520
     59 H         -35.9620   20.8330   27.6030 H       1  UNL1        0.0820
     60 H         -35.3090   20.8150   25.8320 H       1  UNL1        0.0820
     61 C         -36.1250   18.9500   26.5560 C.ar    1  UNL1       -0.0340
     62 C         -36.4510   18.5510   25.2640 C.ar    1  UNL1       -0.0750
     63 C         -37.0680   17.3190   25.0480 C.ar    1  UNL1       -0.0820
     64 H         -36.2240   19.2030   24.4200 H       1  UNL1        0.0840
     65 C         -37.3610   16.4870   26.1320 C.ar    1  UNL1       -0.0830
     66 H         -37.3210   17.0090   24.0340 H       1  UNL1        0.0830
     67 C         -37.0370   16.8910   27.4190 C.ar    1  UNL1       -0.0820
     68 H         -37.8430   15.5220   25.9720 H       1  UNL1        0.0830
     69 C         -36.4180   18.1200   27.6390 C.ar    1  UNL1       -0.0750
     70 H         -37.2690   16.2400   28.2630 H       1  UNL1        0.0830
     71 H         -36.1660   18.4300   28.6530 H       1  UNL1        0.0840
     72 C         -33.0180   15.3080   28.8910 C.3     1  UNL1       -0.0390
     73 H         -32.9350   16.1170   29.6170 H       1  UNL1        0.0360
     74 H         -33.8800   14.6400   28.9160 H       1  UNL1        0.0360
     75 C         -31.7090   14.3970   29.0450 C.3     1  UNL1       -0.0010
     76 C         -32.1360   12.8770   29.5050 C.3     1  UNL1       -0.0350
     77 C         -31.4030   12.5270   30.5890 C.3     1  UNL1        0.0850
     78 H         -33.1600   12.8720   29.8770 H       1  UNL1        0.0360
     79 H         -31.8290   12.1570   28.7460 H       1  UNL1        0.0360
     80 N         -30.7530   13.7870   31.1080 N.4     1  UNL1       -0.0490
     81 H         -32.1240   12.1690   31.3240 H       1  UNL1        0.0750
     82 H         -30.6300   11.8570   30.2140 H       1  UNL1        0.0750
     83 C         -30.9050   14.8810   29.9310 C.3     1  UNL1        0.1930
     84 H         -31.3030   14.0870   31.9000 H       1  UNL1        0.2800
     85 H         -29.7730   13.5740   31.2260 H       1  UNL1        0.2800
     86 H         -30.0520   15.1410   29.3040 H       1  UNL1        0.1290
     87 H         -31.0400   14.4870   28.1890 H       1  UNL1        0.0460
     88 O         -31.3750   16.1190   30.4680 O.3     1  UNL1       -0.3690
     89 H         -30.6440   16.5910   30.8740 H       1  UNL1        0.2120
     90 C         -31.0400   14.9560   23.3450 C.3     1  UNL1       -0.0350
     91 H         -32.0230   14.9350   22.8750 H       1  UNL1        0.0370
     92 H         -30.6260   15.8990   23.7000 H       1  UNL1        0.0370
     93 C         -30.0350   14.4030   22.2850 C.3     1  UNL1       -0.0590
     94 H         -30.1250   13.3160   22.2790 H       1  UNL1        0.0380
     95 C         -30.3550   14.9160   20.8450 C.3     1  UNL1       -0.0730
     96 H         -29.4240   15.1220   20.3170 H       1  UNL1        0.0280
     97 H         -30.9170   14.1550   20.3040 H       1  UNL1        0.0280
     98 H         -30.9460   15.8290   20.9080 H       1  UNL1        0.0280
     99 C         -28.5920   14.7360   22.6740 C.3     1  UNL1       -0.0730
    100 H         -28.5830   15.2340   23.6450 H       1  UNL1        0.0280
    101 H         -28.0090   13.8170   22.7320 H       1  UNL1        0.0280
    102 H         -28.1570   15.3950   21.9240 H       1  UNL1        0.0280
@<TRIPOS>BOND
     1    97    95    1
     2    96    95    1
     3    95    98    1
     4    95    93    1
     5    42    39    1
     6    38    35    1
     7   102    99    1
     8    36    35    1
     9    94    93    1
    10    93    99    1
    11    93    90    1
    12    39    40    1
    13    39    41    1
    14    39    33    1
    15    35    33    1
    16    35    37    1
    17    99   101    1
    18    99   100    1
    19    34    33    1
    20    91    90    1
    21    33     7    1
    22     6     3    1
    23    90    92    1
    24    90     1    1
    25    66    63    1
    26     3     1    1
    27     3     4   am
    28    64    62    1
    29     1     2    1
    30     1    43    1
    31     7     4    1
    32     7     9    1
    33     7     8    1
    34    30    29    1
    35    12     9    1
    36    32    29    1
    37    63    62   ar
    38    63    65   ar
    39     4     5    2
    40     9    10   am
    41    44    43    2
    42    62    61   ar
    43    56    55    2
    44    43    45   am
    45    29    31    1
    46    29    13    1
    47    54    52    1
    48    60    58    1
    49    68    65    1
    50    10    11    2
    51    10    13    1
    52    65    67   ar
    53    55    52    1
    54    55    57    1
    55    53    52    1
    56    52    49    1
    57    13    14    1
    58    13    15    1
    59    61    58    1
    60    61    69   ar
    61    45    46    1
    62    45    47    1
    63    58    57    1
    64    58    59    1
    65    48    47    1
    66    67    69   ar
    67    67    70    1
    68    47    49    1
    69    47    72    1
    70    69    71    1
    71    49    50    1
    72    49    51    1
    73    15    18    1
    74    15    16   am
    75    87    75    1
    76    79    76    1
    77    17    16    2
    78    72    74    1
    79    72    75    1
    80    72    73    1
    81    16    19    1
    82    75    76    1
    83    75    83    1
    84    86    83    1
    85    76    78    1
    86    76    77    1
    87    83    88    1
    88    83    80    1
    89    22    20    1
    90    82    77    1
    91    19    20   ar
    92    19    24   ar
    93    88    89    1
    94    77    80    1
    95    77    81    1
    96    20    21   ar
    97    80    85    1
    98    80    84    1
    99    24    23   ar
   100    21    23   ar
   101    21    25    1
   102    28    25    1
   103    25    26    1
   104    25    27    1
@<TRIPOS>MOLECULE
crystal_redock_e32_er3_1.pdbqt
 102 104 0 0 0
SMALL
GASTEIGER

@<TRIPOS>ATOM
      1 C         -31.1140   13.8470   24.7500 C.3     1  UNL1        0.0890
      2 H         -30.1190   13.7790   25.1910 H       1  UNL1        0.0870
      3 N         -31.4550   12.5310   24.2300 N.am    1  UNL1       -0.3460
      4 C         -31.2330   11.2990   25.0710 C.2     1  UNL1        0.2410
      5 O         -30.7750   11.3920   26.1620 O.2     1  UNL1       -0.2710
      6 H         -31.8410   12.4740   23.2990 H       1  UNL1        0.1630
      7 C         -31.5960    9.9460   24.5190 C.3     1  UNL1        0.0920
      8 H         -30.9490    9.1910   24.9650 H       1  UNL1        0.0880
      9 N         -32.9730    9.6160   24.9000 N.am    1  UNL1       -0.3460
     10 C         -33.2300    8.5030   25.7810 C.2     1  UNL1        0.2400
     11 O         -32.3410    7.8610   26.1910 O.2     1  UNL1       -0.2710
     12 H         -33.7500   10.1600   24.5540 H       1  UNL1        0.1630
     13 C         -34.6970    8.1550   26.1810 C.3     1  UNL1        0.0860
     14 H         -35.0640    7.2520   25.6930 H       1  UNL1        0.0860
     15 N         -34.7490    7.9050   27.6120 N.am    1  UNL1       -0.3430
     16 C         -34.8290    6.5270   28.1010 C.2     1  UNL1        0.2730
     17 O         -34.8540    5.6270   27.3360 O.2     1  UNL1       -0.2660
     18 H         -34.7310    8.6810   28.2590 H       1  UNL1        0.1630
     19 C         -34.8830    6.2490   29.6110 C.ar    1  UNL1        0.1540
     20 C         -34.4230    5.0770   30.2910 C.ar    1  UNL1       -0.0170
     21 C         -34.6990    5.3160   31.6560 C.ar    1  UNL1        0.0770
     22 H         -33.9600    4.1890   29.8610 H       1  UNL1        0.0910
     23 O         -35.2510    6.4910   31.7390 O.2     1  UNL1       -0.2180
     24 N         -35.3700    7.0550   30.5590 N.ar    1  UNL1       -0.1230
     25 C         -34.4040    4.3730   32.8150 C.3     1  UNL1       -0.0290
     26 H         -34.6540    3.3530   32.5260 H       1  UNL1        0.0360
     27 H         -33.3450    4.4300   33.0670 H       1  UNL1        0.0360
     28 H         -34.9990    4.6630   33.6800 H       1  UNL1        0.0360
     29 C         -35.6040    9.3050   25.8240 C.3     1  UNL1       -0.0490
     30 H         -35.3410    9.6820   24.8350 H       1  UNL1        0.0300
     31 H         -36.6390    8.9630   25.8180 H       1  UNL1        0.0300
     32 H         -35.4890   10.1010   26.5590 H       1  UNL1        0.0300
     33 C         -31.4830    9.9710   22.9670 C.3     1  UNL1       -0.0330
     34 H         -31.9170   10.9100   22.6210 H       1  UNL1        0.0420
     35 C         -29.9930    9.9450   22.5050 C.3     1  UNL1       -0.0710
     36 H         -29.8350   10.7070   21.7410 H       1  UNL1        0.0280
     37 H         -29.3450   10.1460   23.3580 H       1  UNL1        0.0280
     38 H         -29.7570    8.9640   22.0930 H       1  UNL1        0.0280
     39 C         -32.2950    8.7990   22.3270 C.3     1  UNL1       -0.0710
     40 H         -31.6190    7.9800   22.0830 H       1  UNL1        0.0280
     41 H         -33.0490    8.4510   23.0340 H       1  UNL1        0.0280
     42 H         -32.7850    9.1500   21.4190 H       1  UNL1        0.0280
     43 C         -32.1920   14.2620   25.7930 C.2     1  UNL1        0.2400
     44 O         -33.3390   14.2760   25.4840 O.2     1  UNL1       -0.2710
     45 N         -31.7930   14.6340   27.1810 N.am    1  UNL1       -0.3550
     46 H         -30.8220   14.6210   27.4570 H       1  UNL1        0.1620
     47 C         -32.8300   15.0250   28.1610 C.3     1  UNL1        0.0130
     48 H         -33.8010   14.7490   27.7500 H       1  UNL1        0.0720
     49 C         -32.7680   16.5190   28.3840 C.3     1  UNL1       -0.0380
     50 H         -33.1020   16.6780   29.4090 H       1  UNL1        0.0360
     51 H         -31.7640   16.8200   28.0840 H       1  UNL1        0.0360
     52 C         -33.7460   17.3000   27.4800 C.3     1  UNL1        0.0180
     53 H         -34.4000   16.5510   27.0350 H       1  UNL1        0.0480
     54 H         -34.1650   18.0860   28.1080 H       1  UNL1        0.0480
     55 C         -33.0560   18.0260   26.2910 C.2     1  UNL1        0.2590
     56 O         -32.1040   17.5480   25.7630 O.2     1  UNL1       -0.2650
     57 O         -33.5680   19.2760   25.8460 O.3     1  UNL1       -0.3170
     58 C         -34.1990   20.0460   26.8740 C.3     1  UNL1        0.0520
     59 H         -34.2010   19.4100   27.7590 H       1  UNL1        0.0820
     60 H         -33.6750   21.0010   26.8900 H       1  UNL1        0.0820
     61 C         -35.6690   20.3000   26.4470 C.ar    1  UNL1       -0.0340
     62 C         -36.5390   20.9630   27.3070 C.ar    1  UNL1       -0.0750
     63 C         -37.8600   21.1910   26.9250 C.ar    1  UNL1       -0.0820
     64 H         -36.1860   21.3040   28.2810 H       1  UNL1        0.0840
     65 C         -38.3110   20.7510   25.6770 C.ar    1  UNL1       -0.0830
     66 H         -38.5390   21.7120   27.6000 H       1  UNL1        0.0830
     67 C         -37.4400   20.0870   24.8240 C.ar    1  UNL1       -0.0820
     68 H         -39.3420   20.9260   25.3700 H       1  UNL1        0.0830
     69 C         -36.1190   19.8580   25.2020 C.ar    1  UNL1       -0.0750
     70 H         -37.7960   19.7420   23.8530 H       1  UNL1        0.0830
     71 H         -35.4410   19.3370   24.5250 H       1  UNL1        0.0840
     72 C         -32.5880   14.3010   29.4840 C.3     1  UNL1       -0.0390
     73 H         -31.8830   14.9260   30.0320 H       1  UNL1        0.0360
     74 H         -33.5800   14.1100   29.8950 H       1  UNL1        0.0360
     75 C         -31.8860   12.8790   29.2620 C.3     1  UNL1       -0.0010
     76 C         -33.0190   11.6870   29.2690 C.3     1  UNL1       -0.0350
     77 C         -32.6340   10.7250   30.1420 C.3     1  UNL1        0.0850
     78 H         -33.9500   12.0600   29.6950 H       1  UNL1        0.0360
     79 H         -33.0260   11.1720   28.3090 H       1  UNL1        0.0360
     80 N         -31.5120   11.3020   30.9700 N.4     1  UNL1       -0.0490
     81 H         -33.4980   10.5520   30.7840 H       1  UNL1        0.0750
     82 H         -32.2420    9.9150   29.5280 H       1  UNL1        0.0750
     83 C         -31.0260   12.6320   30.1930 C.3     1  UNL1        0.1930
     84 H         -31.9190   11.5760   31.8520 H       1  UNL1        0.2800
     85 H         -30.7630   10.6250   30.9480 H       1  UNL1        0.2800
     86 H         -30.1020   12.6280   29.6140 H       1  UNL1        0.1290
     87 H         -31.1840   12.8900   28.4280 H       1  UNL1        0.0460
     88 O         -30.8980   13.7190   31.1110 O.3     1  UNL1       -0.3690
     89 H         -30.1920   13.5310   31.7340 H       1  UNL1        0.2120
     90 C         -31.1010   14.8460   23.6040 C.3     1  UNL1       -0.0350
     91 H         -32.1310   14.8950   23.2520 H       1  UNL1        0.0370
     92 H         -30.6190   15.7380   24.0030 H       1  UNL1        0.0370
     93 C         -30.2410   14.3870   22.3840 C.3     1  UNL1       -0.0590
     94 H         -30.4080   13.3190   22.2440 H       1  UNL1        0.0380
     95 C         -30.6570   15.1120   21.0630 C.3     1  UNL1       -0.0730
     96 H         -31.4890   14.5790   20.6030 H       1  UNL1        0.0280
     97 H         -30.9610   16.1330   21.2900 H       1  UNL1        0.0280
     98 H         -29.8110   15.1280   20.3760 H       1  UNL1        0.0280
     99 C         -28.7480   14.5810   22.6640 C.3     1  UNL1       -0.0730
    100 H         -28.2210   13.6420   22.4890 H       1  UNL1        0.0280
    101 H         -28.3500   15.3500   22.0010 H       1  UNL1        0.0280
    102 H         -28.6100   14.8880   23.7000 H       1  UNL1        0.0280
@<TRIPOS>BOND
     1    98    95    1
     2    96    95    1
     3    95    97    1
     4    95    93    1
     5    42    39    1
     6    36    35    1
     7   101    99    1
     8    40    39    1
     9    38    35    1
    10    94    93    1
    11    39    33    1
    12    39    41    1
    13    93    99    1
    14    93    90    1
    15   100    99    1
    16    35    33    1
    17    35    37    1
    18    34    33    1
    19    99   102    1
    20    33     7    1
    21    91    90    1
    22     6     3    1
    23    90    92    1
    24    90     1    1
    25    70    67    1
    26     3     1    1
    27     3     4   am
    28     7     9    1
    29     7     8    1
    30     7     4    1
    31    71    69    1
    32    12     9    1
    33     1     2    1
    34     1    43    1
    35    67    69   ar
    36    67    65   ar
    37    30    29    1
    38     9    10   am
    39     4     5    2
    40    69    61   ar
    41    68    65    1
    42    44    43    2
    43    65    63   ar
    44    14    13    1
    45    56    55    2
    46    10    13    1
    47    10    11    2
    48    43    45   am
    49    31    29    1
    50    29    13    1
    51    29    32    1
    52    57    55    1
    53    57    58    1
    54    13    15    1
    55    55    52    1
    56    61    58    1
    57    61    62   ar
    58    58    60    1
    59    58    59    1
    60    63    62   ar
    61    63    66    1
    62    53    52    1
    63    45    46    1
    64    45    47    1
    65    62    64    1
    66    17    16    2
    67    52    54    1
    68    52    49    1
    69    15    16   am
    70    15    18    1
    71    48    47    1
    72    51    49    1
    73    16    19    1
    74    47    49    1
    75    47    72    1
    76    79    76    1
    77    49    50    1
    78    87    75    1
    79    75    76    1
    80    75    72    1
    81    75    83    1
    82    76    78    1
    83    76    77    1
    84    72    74    1
    85    72    73    1
    86    82    77    1
    87    19    20   ar
    88    19    24   ar
    89    86    83    1
    90    22    20    1
    91    77    81    1
    92    77    80    1
    93    83    80    1
    94    83    88    1
    95    20    21   ar
    96    24    23   ar
    97    85    80    1
    98    80    84    1
    99    88    89    1
   100    21    23   ar
   101    21    25    1
   102    26    25    1
   103    25    27    1
   104    25    28    1
@<TRIPOS>MOLECULE
crystal_redock_e32_er3_1.pdbqt
 102 104 0 0 0
SMALL
GASTEIGER

@<TRIPOS>ATOM
      1 C         -35.7400    9.7980   28.0540 C.3     1  UNL1        0.0890
      2 H         -35.7040    9.0050   28.8010 H       1  UNL1        0.0870
      3 N         -34.6500   10.7200   28.3410 N.am    1  UNL1       -0.3460
      4 C         -33.2940   10.1950   28.7400 C.2     1  UNL1        0.2410
      5 O         -33.1050    9.0260   28.8270 O.2     1  UNL1       -0.2710
      6 H         -34.8330   11.7100   28.2640 H       1  UNL1        0.1630
      7 C         -32.1760   11.1620   29.0280 C.3     1  UNL1        0.0920
      8 H         -31.2590   10.7970   28.5670 H       1  UNL1        0.0880
      9 N         -32.4820   12.4590   28.4160 N.am    1  UNL1       -0.3460
     10 C         -31.8250   12.8520   27.1940 C.2     1  UNL1        0.2400
     11 O         -31.0470   12.1370   26.6900 O.2     1  UNL1       -0.2710
     12 H         -33.1500   13.0870   28.8400 H       1  UNL1        0.1630
     13 C         -32.1530   14.2340   26.5490 C.3     1  UNL1        0.0860
     14 H         -31.6900   15.0670   27.0780 H       1  UNL1        0.0860
     15 N         -31.6270   14.2590   25.1940 N.am    1  UNL1       -0.3430
     16 C         -31.0810   15.5070   24.6550 C.2     1  UNL1        0.2730
     17 O         -31.0730   16.4850   25.3180 O.2     1  UNL1       -0.2660
     18 H         -31.6410   13.4190   24.6340 H       1  UNL1        0.1630
     19 C         -30.5210   15.5470   23.2250 C.ar    1  UNL1        0.1540
     20 C         -31.2620   15.6930   22.0090 C.ar    1  UNL1       -0.0170
     21 C         -30.2890   15.6700   20.9850 C.ar    1  UNL1        0.0770
     22 H         -32.3400   15.7990   21.8890 H       1  UNL1        0.0910
     23 O         -29.1290   15.5280   21.5570 O.2     1  UNL1       -0.2180
     24 N         -29.2380   15.4540   22.8630 N.ar    1  UNL1       -0.1230
     25 C         -30.5510   15.7900   19.4900 C.3     1  UNL1       -0.0290
     26 H         -30.7750   14.8050   19.0800 H       1  UNL1        0.0360
     27 H         -31.3980   16.4540   19.3220 H       1  UNL1        0.0360
     28 H         -29.6670   16.1960   18.9980 H       1  UNL1        0.0360
     29 C         -33.6460   14.4410   26.5270 C.3     1  UNL1       -0.0490
     30 H         -34.1320   13.6340   27.0760 H       1  UNL1        0.0300
     31 H         -33.8870   15.3950   26.9960 H       1  UNL1        0.0300
     32 H         -33.9980   14.4430   25.4960 H       1  UNL1        0.0300
     33 C         -32.0280   11.3400   30.5680 C.3     1  UNL1       -0.0330
     34 H         -31.5320   10.4510   30.9550 H       1  UNL1        0.0420
     35 C         -31.1290   12.5680   30.9140 C.3     1  UNL1       -0.0710
     36 H         -31.6970   13.4870   30.7720 H       1  UNL1        0.0280
     37 H         -30.8030   12.4980   31.9510 H       1  UNL1        0.0280
     38 H         -30.2580   12.5760   30.2590 H       1  UNL1        0.0280
     39 C         -33.4270   11.4510   31.2550 C.3     1  UNL1       -0.0710
     40 H         -33.6330   12.4950   31.4930 H       1  UNL1        0.0280
     41 H         -34.1950   11.0740   30.5790 H       1  UNL1        0.0280
     42 H         -33.4290   10.8620   32.1720 H       1  UNL1        0.0280
     43 C         -35.5600    9.2540   26.6080 C.2     1  UNL1        0.2400
     44 O         -36.0830    9.8110   25.6980 O.2     1  UNL1       -0.2710
     45 N         -34.7290    8.0420   26.3580 N.am    1  UNL1       -0.3550
     46 H         -34.2760    7.5630   27.1230 H       1  UNL1        0.1620
     47 C         -34.5670    7.5370   24.9770 C.3     1  UNL1        0.0130
     48 H         -35.1930    8.1430   24.3230 H       1  UNL1        0.0720
     49 C         -35.0060    6.0910   24.9190 C.3     1  UNL1       -0.0380
     50 H         -35.5440    5.9090   25.8500 H       1  UNL1        0.0360
     51 H         -35.5160    5.9780   23.9620 H       1  UNL1        0.0360
     52 C         -33.8180    5.1050   24.9000 C.3     1  UNL1        0.0180
     53 H         -34.1270    4.2840   24.2540 H       1  UNL1        0.0480
     54 H         -32.9430    5.7020   24.6440 H       1  UNL1        0.0480
     55 C         -33.5120    4.4680   26.2840 C.2     1  UNL1        0.2590
     56 O         -33.4290    3.2880   26.4000 O.2     1  UNL1       -0.2650
     57 O         -33.3430    5.3110   27.4170 O.3     1  UNL1       -0.3170
     58 C         -33.3730    4.6170   28.6680 C.3     1  UNL1        0.0520
     59 H         -33.5070    3.5650   28.4190 H       1  UNL1        0.0820
     60 H         -32.4830    4.9410   29.2060 H       1  UNL1        0.0820
     61 C         -34.6230    5.0990   29.4530 C.ar    1  UNL1       -0.0340
     62 C         -34.5430    5.3160   30.8240 C.ar    1  UNL1       -0.0750
     63 C         -35.6660    5.7480   31.5290 C.ar    1  UNL1       -0.0820
     64 H         -33.6010    5.1480   31.3470 H       1  UNL1        0.0840
     65 C         -36.8720    5.9610   30.8570 C.ar    1  UNL1       -0.0830
     66 H         -35.5990    5.9200   32.6040 H       1  UNL1        0.0830
     67 C         -36.9480    5.7390   29.4890 C.ar    1  UNL1       -0.0820
     68 H         -37.7550    6.2990   31.4010 H       1  UNL1        0.0830
     69 C         -35.8280    5.3090   28.7800 C.ar    1  UNL1       -0.0750
     70 H         -37.8920    5.9030   28.9680 H       1  UNL1        0.0830
     71 H         -35.8950    5.1380   27.7050 H       1  UNL1        0.0840
     72 C         -33.1020    7.6430   24.5570 C.3     1  UNL1       -0.0390
     73 H         -32.5280    7.5460   25.4800 H       1  UNL1        0.0360
     74 H         -32.9760    6.9120   23.7580 H       1  UNL1        0.0360
     75 C         -32.7650    9.0820   23.9400 C.3     1  UNL1       -0.0010
     76 C         -31.8750    8.9080   22.5680 C.3     1  UNL1       -0.0350
     77 C         -30.7750    9.6940   22.6590 C.3     1  UNL1        0.0850
     78 H         -31.4640    7.9000   22.5140 H       1  UNL1        0.0360
     79 H         -32.4150    9.3230   21.7170 H       1  UNL1        0.0360
     80 N         -30.6660   10.1350   24.0990 N.4     1  UNL1       -0.0490
     81 H         -29.9330    9.0440   22.4210 H       1  UNL1        0.0750
     82 H         -30.9860   10.5620   22.0360 H       1  UNL1        0.0750
     83 C         -32.0940    9.8030   24.7740 C.3     1  UNL1        0.1930
     84 H         -29.9640    9.5480   24.5260 H       1  UNL1        0.2800
     85 H         -30.5440   11.1380   24.0810 H       1  UNL1        0.2800
     86 H         -32.8120   10.5990   24.9710 H       1  UNL1        0.1290
     87 H         -33.6450    9.7230   23.8820 H       1  UNL1        0.0460
     88 O         -31.9050    9.1430   26.0270 O.3     1  UNL1       -0.3690
     89 H         -31.6630    9.7880   26.6960 H       1  UNL1        0.2120
     90 C         -37.0610   10.5440   28.1590 C.3     1  UNL1       -0.0350
     91 H         -36.7950   11.5650   28.4330 H       1  UNL1        0.0370
     92 H         -37.5780   10.3490   27.2200 H       1  UNL1        0.0370
     93 C         -37.9920   10.0120   29.2940 C.3     1  UNL1       -0.0590
     94 H         -38.6880   10.8100   29.5520 H       1  UNL1        0.0380
     95 C         -38.8320    8.7760   28.8370 C.3     1  UNL1       -0.0730
     96 H         -39.8910    9.0330   28.8460 H       1  UNL1        0.0280
     97 H         -38.5370    8.4900   27.8280 H       1  UNL1        0.0280
     98 H         -38.6540    7.9440   29.5180 H       1  UNL1        0.0280
     99 C         -37.1870    9.6870   30.5550 C.3     1  UNL1       -0.0730
    100 H         -37.8130    9.1300   31.2530 H       1  UNL1        0.0280
    101 H         -36.3190    9.0840   30.2870 H       1  UNL1        0.0280
    102 H         -36.8540   10.6130   31.0230 H       1  UNL1        0.0280
@<TRIPOS>BOND
     1    28    25    1
     2    26    25    1
     3    27    25    1
     4    25    21    1
     5    21    23   ar
     6    21    20   ar
     7    23    24   ar
     8    79    76    1
     9    22    20    1
    10    20    19   ar
    11    82    77    1
    12    81    77    1
    13    78    76    1
    14    76    77    1
    15    76    75    1
    16    77    80    1
    17    24    19   ar
    18    19    16    1
    19    74    72    1
    20    87    75    1
    21    75    72    1
    22    75    83    1
    23    51    49    1
    24    85    80    1
    25    80    84    1
    26    80    83    1
    27    53    52    1
    28    48    47    1
    29    72    47    1
    30    72    73    1
    31    18    15    1
    32    54    52    1
    33    16    15   am
    34    16    17    2
    35    83    86    1
    36    83    88    1
    37    52    49    1
    38    52    55    1
    39    49    47    1
    40    49    50    1
    41    47    45    1
    42    15    13    1
    43    32    29    1
    44    44    43    2
    45    88    89    1
    46    55    56    2
    47    55    57    1
    48    45    43   am
    49    45    46    1
    50    29    13    1
    51    29    31    1
    52    29    30    1
    53    13    14    1
    54    13    10    1
    55    43     1    1
    56    11    10    2
    57    10     9   am
    58    92    90    1
    59    57    58    1
    60    71    69    1
    61    97    95    1
    62     1    90    1
    63     1     3    1
    64     1     2    1
    65    90    91    1
    66    90    93    1
    67     6     3    1
    68     3     4   am
    69     9    12    1
    70     9     7    1
    71    59    58    1
    72     8     7    1
    73    58    60    1
    74    58    61    1
    75     4     5    2
    76     4     7    1
    77    69    61   ar
    78    69    67   ar
    79    95    96    1
    80    95    93    1
    81    95    98    1
    82    70    67    1
    83     7    33    1
    84    93    94    1
    85    93    99    1
    86    61    62   ar
    87    67    65   ar
    88    38    35    1
    89   101    99    1
    90    99   102    1
    91    99   100    1
    92    33    35    1
    93    33    34    1
    94    33    39    1
    95    41    39    1
    96    36    35    1
    97    62    64    1
    98    62    63   ar
    99    65    68    1
   100    65    63   ar
   101    35    37    1
   102    39    40    1
   103    39    42    1
   104    63    66    1
@<TRIPOS>MOLECULE
crystal_redock_e32_er3_1.pdbqt
 102 104 0 0 0
SMALL
GASTEIGER

@<TRIPOS>ATOM
      1 C         -33.7500    6.8250   27.7440 C.3     1  UNL1        0.0890
      2 H         -33.2640    6.5050   28.6670 H       1  UNL1        0.0870
      3 N         -34.2040    8.1940   27.9400 N.am    1  UNL1       -0.3460
      4 C         -34.7250    8.6400   29.2830 C.2     1  UNL1        0.2410
      5 O         -34.7720    7.8770   30.1910 O.2     1  UNL1       -0.2710
      6 H         -34.1570    8.8270   27.1530 H       1  UNL1        0.1630
      7 C         -35.1850   10.0620   29.4680 C.3     1  UNL1        0.0920
      8 H         -35.4430   10.2210   30.5150 H       1  UNL1        0.0880
      9 N         -34.0850   10.9770   29.1490 N.am    1  UNL1       -0.3460
     10 C         -33.0450   11.2190   30.1190 C.2     1  UNL1        0.2400
     11 O         -33.0780   10.6870   31.1610 O.2     1  UNL1       -0.2710
     12 H         -34.0430   11.4440   28.2550 H       1  UNL1        0.1630
     13 C         -31.8780   12.1970   29.7740 C.3     1  UNL1        0.0860
     14 H         -31.2990   11.8740   28.9100 H       1  UNL1        0.0860
     15 N         -32.4360   13.4970   29.4400 N.am    1  UNL1       -0.3430
     16 C         -31.6510   14.4310   28.6300 C.2     1  UNL1        0.2730
     17 O         -30.5720   14.1290   28.2550 O.2     1  UNL1       -0.2660
     18 H         -33.3580   13.7480   29.7670 H       1  UNL1        0.1630
     19 C         -32.2290   15.8080   28.2670 C.ar    1  UNL1        0.1540
     20 C         -32.5220   16.3050   26.9580 C.ar    1  UNL1       -0.0170
     21 C         -33.0290   17.6070   27.1680 C.ar    1  UNL1        0.0770
     22 H         -32.3880   15.7990   26.0020 H       1  UNL1        0.0910
     23 O         -33.0240   17.8220   28.4510 O.2     1  UNL1       -0.2180
     24 N         -32.5610   16.7870   29.1130 N.ar    1  UNL1       -0.1230
     25 C         -33.4950   18.5780   26.0910 C.3     1  UNL1       -0.0290
     26 H         -33.0110   19.5430   26.2370 H       1  UNL1        0.0360
     27 H         -33.2320   18.1840   25.1090 H       1  UNL1        0.0360
     28 H         -34.5760   18.7000   26.1560 H       1  UNL1        0.0360
     29 C         -30.9560   12.3200   30.9600 C.3     1  UNL1       -0.0490
     30 H         -29.9490   12.0210   30.6700 H       1  UNL1        0.0300
     31 H         -30.9430   13.3540   31.3040 H       1  UNL1        0.0300
     32 H         -31.3090   11.6740   31.7640 H       1  UNL1        0.0300
     33 C         -36.3850   10.3470   28.5190 C.3     1  UNL1       -0.0330
     34 H         -36.5870    9.4330   27.9610 H       1  UNL1        0.0420
     35 C         -37.6750   10.7000   29.3230 C.3     1  UNL1       -0.0710
     36 H         -38.0180   11.6950   29.0410 H       1  UNL1        0.0280
     37 H         -38.4520    9.9700   29.1010 H       1  UNL1        0.0280
     38 H         -37.4530   10.6830   30.3910 H       1  UNL1        0.0280
     39 C         -36.0320   11.4710   27.4930 C.3     1  UNL1       -0.0710
     40 H         -36.9160   11.7170   26.9040 H       1  UNL1        0.0280
     41 H         -35.6930   12.3590   28.0280 H       1  UNL1        0.0280
     42 H         -35.2390   11.1230   26.8310 H       1  UNL1        0.0280
     43 C         -32.7810    6.7930   26.5280 C.2     1  UNL1        0.2400
     44 O         -31.8600    6.0420   26.5260 O.2     1  UNL1       -0.2710
     45 N         -33.0060    7.6930   25.3610 N.am    1  UNL1       -0.3550
     46 H         -33.7880    8.3320   25.3490 H       1  UNL1        0.1620
     47 C         -32.0770    7.6490   24.2120 C.3     1  UNL1        0.0130
     48 H         -31.1680    7.1420   24.5350 H       1  UNL1        0.0720
     49 C         -31.7540    9.0610   23.7770 C.3     1  UNL1       -0.0380
     50 H         -30.7120    9.2230   24.0520 H       1  UNL1        0.0360
     51 H         -32.0580    9.1230   22.7310 H       1  UNL1        0.0360
     52 C         -32.5770   10.1250   24.5350 C.3     1  UNL1        0.0180
     53 H         -32.6890   10.9590   23.8430 H       1  UNL1        0.0480
     54 H         -33.4590    9.6040   24.9090 H       1  UNL1        0.0480
     55 C         -31.8560   10.7000   25.7850 C.2     1  UNL1        0.2590
     56 O         -32.0420   10.2270   26.8590 O.2     1  UNL1       -0.2650
     57 O         -30.9780   11.8090   25.6350 O.3     1  UNL1       -0.3170
     58 C         -31.6230   13.0050   25.1870 C.3     1  UNL1        0.0520
     59 H         -32.5920   12.6910   24.7990 H       1  UNL1        0.0820
     60 H         -31.5700   13.7000   26.0250 H       1  UNL1        0.0820
     61 C         -30.7900   13.5870   24.0140 C.ar    1  UNL1       -0.0340
     62 C         -30.6050   14.9620   23.9060 C.ar    1  UNL1       -0.0750
     63 C         -29.8570   15.4850   22.8520 C.ar    1  UNL1       -0.0820
     64 H         -31.0470   15.6300   24.6460 H       1  UNL1        0.0840
     65 C         -29.2950   14.6280   21.9020 C.ar    1  UNL1       -0.0830
     66 H         -29.7130   16.5630   22.7710 H       1  UNL1        0.0830
     67 C         -29.4840   13.2570   22.0130 C.ar    1  UNL1       -0.0820
     68 H         -28.7080   15.0290   21.0760 H       1  UNL1        0.0830
     69 C         -30.2290   12.7300   23.0660 C.ar    1  UNL1       -0.0750
     70 H         -29.0460   12.5910   21.2690 H       1  UNL1        0.0830
     71 H         -30.3730   11.6520   23.1460 H       1  UNL1        0.0840
     72 C         -32.7230    6.8930   23.0530 C.3     1  UNL1       -0.0390
     73 H         -32.0460    6.0690   22.8300 H       1  UNL1        0.0360
     74 H         -33.7440    6.6870   23.3750 H       1  UNL1        0.0360
     75 C         -32.8170    7.7980   21.7340 C.3     1  UNL1       -0.0010
     76 C         -34.3910    8.1320   21.3940 C.3     1  UNL1       -0.0350
     77 C         -34.6340    7.8170   20.0990 C.3     1  UNL1        0.0850
     78 H         -35.0440    7.4570   21.9480 H       1  UNL1        0.0360
     79 H         -34.5610    9.2080   21.4310 H       1  UNL1        0.0360
     80 N         -33.4620    6.9950   19.6170 N.4     1  UNL1       -0.0490
     81 H         -35.5250    7.1900   20.1150 H       1  UNL1        0.0750
     82 H         -34.6450    8.7660   19.5660 H       1  UNL1        0.0750
     83 C         -32.2970    7.1960   20.7170 C.3     1  UNL1        0.1930
     84 H         -33.7610    6.0310   19.6380 H       1  UNL1        0.2800
     85 H         -33.1600    7.4120   18.7480 H       1  UNL1        0.2800
     86 H         -31.4490    7.8500   20.5120 H       1  UNL1        0.1290
     87 H         -32.1260    8.6410   21.7620 H       1  UNL1        0.0460
     88 O         -31.7300    5.9330   21.0690 O.3     1  UNL1       -0.3690
     89 H         -31.7870    5.3360   20.3200 H       1  UNL1        0.2120
     90 C         -34.9530    5.9390   27.4630 C.3     1  UNL1       -0.0350
     91 H         -34.5870    5.1580   26.7970 H       1  UNL1        0.0370
     92 H         -35.3540    5.6770   28.4420 H       1  UNL1        0.0370
     93 C         -36.1030    6.6680   26.6960 C.3     1  UNL1       -0.0590
     94 H         -35.8230    7.7170   26.6000 H       1  UNL1        0.0380
     95 C         -36.3060    6.0960   25.2570 C.3     1  UNL1       -0.0730
     96 H         -36.3270    5.0070   25.2980 H       1  UNL1        0.0280
     97 H         -37.2490    6.4610   24.8510 H       1  UNL1        0.0280
     98 H         -35.4850    6.4200   24.6180 H       1  UNL1        0.0280
     99 C         -37.4090    6.6180   27.4930 C.3     1  UNL1       -0.0730
    100 H         -37.3160    5.8880   28.2970 H       1  UNL1        0.0280
    101 H         -37.6150    7.6010   27.9160 H       1  UNL1        0.0280
    102 H         -38.2260    6.3290   26.8320 H       1  UNL1        0.0280
@<TRIPOS>BOND
     1    85    80    1
     2    82    77    1
     3    80    84    1
     4    80    77    1
     5    80    83    1
     6    77    81    1
     7    77    76    1
     8    89    88    1
     9    86    83    1
    10    83    88    1
    11    83    75    1
    12    68    65    1
    13    70    67    1
    14    76    79    1
    15    76    75    1
    16    76    78    1
    17    75    87    1
    18    75    72    1
    19    65    67   ar
    20    65    63   ar
    21    67    69   ar
    22    51    49    1
    23    66    63    1
    24    73    72    1
    25    63    62   ar
    26    72    74    1
    27    72    47    1
    28    69    71    1
    29    69    61   ar
    30    49    50    1
    31    49    47    1
    32    49    52    1
    33    53    52    1
    34    62    61   ar
    35    62    64    1
    36    61    58    1
    37    47    48    1
    38    47    45    1
    39    52    54    1
    40    52    55    1
    41    98    95    1
    42    59    58    1
    43    97    95    1
    44    27    25    1
    45    58    57    1
    46    58    60    1
    47    95    96    1
    48    95    93    1
    49    46    45    1
    50    45    43   am
    51    57    55    1
    52    55    56    2
    53    22    20    1
    54    25    28    1
    55    25    26    1
    56    25    21    1
    57    44    43    2
    58    43     1    1
    59    94    93    1
    60    93    90    1
    61    93    99    1
    62    91    90    1
    63    42    39    1
    64   102    99    1
    65    40    39    1
    66    20    21   ar
    67    20    19   ar
    68     6     3    1
    69    21    23   ar
    70    90     1    1
    71    90    92    1
    72    39    41    1
    73    39    33    1
    74    99   101    1
    75    99   100    1
    76     1     3    1
    77     1     2    1
    78     3     4   am
    79    34    33    1
    80    17    16    2
    81    12     9    1
    82    19    16    1
    83    19    24   ar
    84    23    24   ar
    85    33    35    1
    86    33     7    1
    87    16    15   am
    88    14    13    1
    89    36    35    1
    90    37    35    1
    91     9     7    1
    92     9    10   am
    93     4     7    1
    94     4     5    2
    95    35    38    1
    96    15    18    1
    97    15    13    1
    98     7     8    1
    99    13    10    1
   100    13    29    1
   101    10    11    2
   102    30    29    1
   103    29    31    1
   104    29    32    1
@<TRIPOS>MOLECULE
crystal_redock_e32_er3_1.pdbqt
 102 104 0 0 0
SMALL
GASTEIGER

@<TRIPOS>ATOM
      1 C         -30.7850   14.8270   24.3870 C.3     1  UNL1        0.0890
      2 H         -29.8410   14.5810   24.8720 H       1  UNL1        0.0870
      3 N         -31.4860   13.5770   24.1330 N.am    1  UNL1       -0.3460
      4 C         -31.4800   12.4770   25.1650 C.2     1  UNL1        0.2410
      5 O         -30.9020   12.6210   26.1910 O.2     1  UNL1       -0.2710
      6 H         -31.9700   13.4740   23.2520 H       1  UNL1        0.1630
      7 C         -32.2150   11.1920   24.8870 C.3     1  UNL1        0.0920
      8 H         -32.9290   11.3550   24.0800 H       1  UNL1        0.0880
      9 N         -31.2650   10.1750   24.4270 N.am    1  UNL1       -0.3460
     10 C         -31.5910    9.3450   23.2940 C.2     1  UNL1        0.2400
     11 O         -32.6150    9.4800   22.7420 O.2     1  UNL1       -0.2710
     12 H         -30.3790   10.0450   24.8940 H       1  UNL1        0.1630
     13 C         -30.5770    8.2620   22.8100 C.3     1  UNL1        0.0860
     14 H         -30.4060    7.4830   23.5530 H       1  UNL1        0.0860
     15 N         -31.1180    7.6020   21.6330 N.am    1  UNL1       -0.3430
     16 C         -31.7780    6.3020   21.7740 C.2     1  UNL1        0.2730
     17 O         -31.8660    5.7940   22.8380 O.2     1  UNL1       -0.2660
     18 H         -31.0360    8.0420   20.7280 H       1  UNL1        0.1630
     19 C         -32.3550    5.5940   20.5390 C.ar    1  UNL1        0.1540
     20 C         -32.3520    4.1890   20.2670 C.ar    1  UNL1       -0.0170
     21 C         -32.9980    4.0590   19.0180 C.ar    1  UNL1        0.0770
     22 H         -31.9440    3.3870   20.8830 H       1  UNL1        0.0910
     23 O         -33.3300    5.2540   18.6270 O.2     1  UNL1       -0.2180
     24 N         -32.9650    6.1670   19.4970 N.ar    1  UNL1       -0.1230
     25 C         -33.2580    2.7590   18.2680 C.3     1  UNL1       -0.0290
     26 H         -34.0860    2.8980   17.5740 H       1  UNL1        0.0360
     27 H         -32.3630    2.4740   17.7140 H       1  UNL1        0.0360
     28 H         -33.5090    1.9730   18.9800 H       1  UNL1        0.0360
     29 C         -29.2610    8.9150   22.4770 C.3     1  UNL1       -0.0490
     30 H         -28.4710    8.1640   22.4810 H       1  UNL1        0.0300
     31 H         -29.3220    9.3730   21.4900 H       1  UNL1        0.0300
     32 H         -29.0370    9.6810   23.2200 H       1  UNL1        0.0300
     33 C         -32.9070   10.6990   26.1920 C.3     1  UNL1       -0.0330
     34 H         -32.7220   11.4450   26.9640 H       1  UNL1        0.0420
     35 C         -34.4530   10.5880   26.0080 C.3     1  UNL1       -0.0710
     36 H         -34.7620   11.1910   25.1540 H       1  UNL1        0.0280
     37 H         -34.7240    9.5470   25.8340 H       1  UNL1        0.0280
     38 H         -34.9520   10.9480   26.9070 H       1  UNL1        0.0280
     39 C         -32.2950    9.3440   26.6720 C.3     1  UNL1       -0.0710
     40 H         -33.0090    8.8310   27.3160 H       1  UNL1        0.0280
     41 H         -32.0710    8.7190   25.8060 H       1  UNL1        0.0280
     42 H         -31.3770    9.5360   27.2270 H       1  UNL1        0.0280
     43 C         -31.6870   15.7280   25.2780 C.2     1  UNL1        0.2400
     44 O         -31.4490   15.8400   26.4370 O.2     1  UNL1       -0.2710
     45 N         -32.8440   16.4580   24.6850 N.am    1  UNL1       -0.3550
     46 H         -33.0530   16.3740   23.7000 H       1  UNL1        0.1620
     47 C         -33.6910   17.3120   25.5450 C.3     1  UNL1        0.0130
     48 H         -33.2750   17.2900   26.5530 H       1  UNL1        0.0720
     49 C         -35.1010   16.7670   25.5560 C.3     1  UNL1       -0.0380
     50 H         -35.7480   17.6270   25.7290 H       1  UNL1        0.0360
     51 H         -35.1990   16.1860   24.6390 H       1  UNL1        0.0360
     52 C         -35.3560   15.7870   26.7220 C.3     1  UNL1        0.0180
     53 H         -36.4340   15.7930   26.8830 H       1  UNL1        0.0480
     54 H         -34.8510   14.8610   26.4460 H       1  UNL1        0.0480
     55 C         -34.7210   16.2360   28.0680 C.2     1  UNL1        0.2590
     56 O         -35.0880   17.2300   28.6060 O.2     1  UNL1       -0.2650
     57 O         -33.6840   15.4520   28.6450 O.3     1  UNL1       -0.3170
     58 C         -33.6030   14.1210   28.1270 C.3     1  UNL1        0.0520
     59 H         -34.6210   13.7320   28.1530 H       1  UNL1        0.0820
     60 H         -33.0770   14.2060   27.1760 H       1  UNL1        0.0820
     61 C         -32.7310   13.2810   29.0970 C.ar    1  UNL1       -0.0340
     62 C         -33.0980   11.9770   29.4130 C.ar    1  UNL1       -0.0750
     63 C         -32.3140   11.2230   30.2850 C.ar    1  UNL1       -0.0820
     64 H         -34.0000   11.5460   28.9780 H       1  UNL1        0.0840
     65 C         -31.1600   11.7780   30.8440 C.ar    1  UNL1       -0.0830
     66 H         -32.6040   10.2000   30.5290 H       1  UNL1        0.0830
     67 C         -30.8000   13.0810   30.5280 C.ar    1  UNL1       -0.0820
     68 H         -30.5410   11.1950   31.5260 H       1  UNL1        0.0830
     69 C         -31.5790   13.8380   29.6560 C.ar    1  UNL1       -0.0750
     70 H         -29.9000   13.5120   30.9680 H       1  UNL1        0.0830
     71 H         -31.2880   14.8600   29.4120 H       1  UNL1        0.0840
     72 C         -33.7010   18.7410   25.0060 C.3     1  UNL1       -0.0390
     73 H         -33.0340   18.7300   24.1440 H       1  UNL1        0.0360
     74 H         -34.7530   18.9950   24.8780 H       1  UNL1        0.0360
     75 C         -33.0890   19.7770   26.0630 C.3     1  UNL1       -0.0010
     76 C         -32.1820   18.9740   27.1750 C.3     1  UNL1       -0.0350
     77 C         -32.5850   19.3410   28.4150 C.3     1  UNL1        0.0850
     78 H         -32.4060   17.9080   27.1400 H       1  UNL1        0.0360
     79 H         -31.1480   19.3160   27.1320 H       1  UNL1        0.0360
     80 N         -33.8980   20.0700   28.2550 N.4     1  UNL1       -0.0490
     81 H         -32.7590   18.4090   28.9520 H       1  UNL1        0.0750
     82 H         -31.8310   20.0420   28.7700 H       1  UNL1        0.0750
     83 C         -34.0230   20.4180   26.6830 C.3     1  UNL1        0.1930
     84 H         -34.6230   19.4100   28.4970 H       1  UNL1        0.2800
     85 H         -33.8090   20.9340   28.7700 H       1  UNL1        0.2800
     86 H         -33.8400   21.4310   26.3240 H       1  UNL1        0.1290
     87 H         -32.6300   20.6390   25.5780 H       1  UNL1        0.0460
     88 O         -35.3240   20.0730   26.2040 O.3     1  UNL1       -0.3690
     89 H         -35.2410   19.4830   25.4500 H       1  UNL1        0.2120
     90 C         -30.5170   15.5230   23.0620 C.3     1  UNL1       -0.0350
     91 H         -31.4410   16.0490   22.8200 H       1  UNL1        0.0370
     92 H         -29.5950   16.0840   23.2120 H       1  UNL1        0.0370
     93 C         -30.2480   14.5390   21.8800 C.3     1  UNL1       -0.0590
     94 H         -30.9550   13.7140   21.9680 H       1  UNL1        0.0380
     95 C         -30.4740   15.2130   20.4880 C.3     1  UNL1       -0.0730
     96 H         -30.8510   16.2250   20.6320 H       1  UNL1        0.0280
     97 H         -29.5300   15.2510   19.9450 H       1  UNL1        0.0280
     98 H         -31.1990   14.6330   19.9180 H       1  UNL1        0.0280
     99 C         -28.8410   13.9440   21.9740 C.3     1  UNL1       -0.0730
    100 H         -28.2560   14.2520   21.1070 H       1  UNL1        0.0280
    101 H         -28.3560   14.2980   22.8840 H       1  UNL1        0.0280
    102 H         -28.9070   12.8560   21.9990 H       1  UNL1        0.0280
@<TRIPOS>BOND
     1    26    25    1
     2    27    25    1
     3    25    28    1
     4    25    21    1
     5    23    21   ar
     6    23    24   ar
     7    21    20   ar
     8    24    19   ar
     9    98    95    1
    10    97    95    1
    11    20    19   ar
    12    20    22    1
    13    95    96    1
    14    95    93    1
    15    19    16    1
    16    18    15    1
    17   100    99    1
    18    31    29    1
    19    15    16   am
    20    15    13    1
    21    16    17    2
    22    93    94    1
    23    93    99    1
    24    93    90    1
    25    99   102    1
    26    99   101    1
    27    29    30    1
    28    29    13    1
    29    29    32    1
    30    11    10    2
    31    13    10    1
    32    13    14    1
    33    91    90    1
    34    90    92    1
    35    90     1    1
    36     6     3    1
    37    10     9   am
    38    46    45    1
    39     8     7    1
    40     3     1    1
    41     3     4   am
    42    73    72    1
    43     1     2    1
    44     1    43    1
    45     9     7    1
    46     9    12    1
    47    51    49    1
    48    45    43   am
    49    45    47    1
    50    74    72    1
    51     7     4    1
    52     7    33    1
    53    72    47    1
    54    72    75    1
    55    36    35    1
    56     4     5    2
    57    43    44    2
    58    89    88    1
    59    47    49    1
    60    47    48    1
    61    49    50    1
    62    49    52    1
    63    87    75    1
    64    41    39    1
    65    37    35    1
    66    35    33    1
    67    35    38    1
    68    75    83    1
    69    75    76    1
    70    33    39    1
    71    33    34    1
    72    88    83    1
    73    86    83    1
    74    54    52    1
    75    39    42    1
    76    39    40    1
    77    83    80    1
    78    52    53    1
    79    52    55    1
    80    79    76    1
    81    78    76    1
    82    76    77    1
    83    60    58    1
    84    55    56    2
    85    55    57    1
    86    58    59    1
    87    58    57    1
    88    58    61    1
    89    80    77    1
    90    80    84    1
    91    80    85    1
    92    77    82    1
    93    77    81    1
    94    64    62    1
    95    61    62   ar
    96    61    69   ar
    97    71    69    1
    98    62    63   ar
    99    69    67   ar
   100    63    66    1
   101    63    65   ar
   102    67    65   ar
   103    67    70    1
   104    65    68    1
@<TRIPOS>MOLECULE
crystal_redock_e32_er3_1.pdbqt
 102 104 0 0 0
SMALL
GASTEIGER

@<TRIPOS>ATOM
      1 C         -35.4880   14.6060   26.8850 C.3     1  UNL1        0.0890
      2 H         -35.6760   14.9150   27.9130 H       1  UNL1        0.0870
      3 N         -34.3250   15.3430   26.4120 N.am    1  UNL1       -0.3460
      4 C         -33.6250   16.3240   27.3170 C.2     1  UNL1        0.2410
      5 O         -34.0180   16.5070   28.4220 O.2     1  UNL1       -0.2710
      6 H         -34.0080   15.1750   25.4670 H       1  UNL1        0.1630
      7 C         -32.4200   17.0740   26.8130 C.3     1  UNL1        0.0920
      8 H         -31.5820   16.9010   27.4880 H       1  UNL1        0.0880
      9 N         -32.0330   16.5510   25.4990 N.am    1  UNL1       -0.3460
     10 C         -31.3040   15.3100   25.4040 C.2     1  UNL1        0.2400
     11 O         -31.0180   14.7210   26.3740 O.2     1  UNL1       -0.2710
     12 H         -32.2710   17.0490   24.6540 H       1  UNL1        0.1630
     13 C         -30.8920   14.7600   24.0030 C.3     1  UNL1        0.0860
     14 H         -29.8370   14.9190   23.7810 H       1  UNL1        0.0860
     15 N         -31.1110   13.3240   23.9780 N.am    1  UNL1       -0.3430
     16 C         -30.3240   12.4900   23.0660 C.2     1  UNL1        0.2730
     17 O         -29.5200   12.9850   22.3550 O.2     1  UNL1       -0.2660
     18 H         -31.8020   12.9090   24.5870 H       1  UNL1        0.1630
     19 C         -30.5440   10.9700   23.0300 C.ar    1  UNL1        0.1540
     20 C         -31.5370   10.2220   23.7390 C.ar    1  UNL1       -0.0170
     21 C         -31.3160    8.8780   23.3660 C.ar    1  UNL1        0.0770
     22 H         -32.3010   10.5980   24.4210 H       1  UNL1        0.0910
     23 O         -30.3130    8.8660   22.5380 O.2     1  UNL1       -0.2180
     24 N         -29.8450   10.0740   22.3270 N.ar    1  UNL1       -0.1230
     25 C         -32.1070    7.6680   23.8440 C.3     1  UNL1       -0.0290
     26 H         -31.4610    7.0220   24.4370 H       1  UNL1        0.0360
     27 H         -32.9460    8.0010   24.4540 H       1  UNL1        0.0360
     28 H         -32.4820    7.1150   22.9820 H       1  UNL1        0.0360
     29 C         -31.7200   15.4280   22.9350 C.3     1  UNL1       -0.0490
     30 H         -32.3510   14.6840   22.4470 H       1  UNL1        0.0300
     31 H         -32.3480   16.1950   23.3880 H       1  UNL1        0.0300
     32 H         -31.0620   15.8860   22.1970 H       1  UNL1        0.0300
     33 C         -32.7660   18.5860   26.6850 C.3     1  UNL1       -0.0330
     34 H         -32.0550   19.0280   25.9870 H       1  UNL1        0.0420
     35 C         -34.1950   18.7940   26.0920 C.3     1  UNL1       -0.0710
     36 H         -34.1200   19.3040   25.1320 H       1  UNL1        0.0280
     37 H         -34.6750   17.8260   25.9530 H       1  UNL1        0.0280
     38 H         -34.7880   19.3980   26.7780 H       1  UNL1        0.0280
     39 C         -32.6120   19.3140   28.0590 C.3     1  UNL1       -0.0710
     40 H         -31.6110   19.7390   28.1340 H       1  UNL1        0.0280
     41 H         -33.3520   20.1110   28.1330 H       1  UNL1        0.0280
     42 H         -32.7660   18.6000   28.8680 H       1  UNL1        0.0280
     43 C         -35.1880   13.0830   26.7740 C.2     1  UNL1        0.2400
     44 O         -35.3370   12.5260   25.7350 O.2     1  UNL1       -0.2710
     45 N         -34.7070   12.3220   27.9620 N.am    1  UNL1       -0.3550
     46 H         -34.5730   12.7860   28.8490 H       1  UNL1        0.1620
     47 C         -34.4260   10.8750   27.8400 C.3     1  UNL1        0.0130
     48 H         -34.3430   10.6380   26.7790 H       1  UNL1        0.0720
     49 C         -35.5610   10.0910   28.4580 C.3     1  UNL1       -0.0380
     50 H         -35.5770   10.3750   29.5100 H       1  UNL1        0.0360
     51 H         -36.4290   10.2850   27.8280 H       1  UNL1        0.0360
     52 C         -35.3260    8.5650   28.4210 C.3     1  UNL1        0.0180
     53 H         -36.1240    8.1590   27.8010 H       1  UNL1        0.0480
     54 H         -34.2850    8.4340   28.1250 H       1  UNL1        0.0480
     55 C         -35.4670    7.8760   29.8070 C.2     1  UNL1        0.2590
     56 O         -35.6640    8.5220   30.7840 O.2     1  UNL1       -0.2650
     57 O         -35.3460    6.4620   29.8970 O.3     1  UNL1       -0.3170
     58 C         -35.4870    5.9490   31.2240 C.3     1  UNL1        0.0520
     59 H         -35.3270    6.7990   31.8880 H       1  UNL1        0.0820
     60 H         -36.4400    5.4200   31.2360 H       1  UNL1        0.0820
     61 C         -34.3520    4.9180   31.4640 C.ar    1  UNL1       -0.0340
     62 C         -34.2140    4.3100   32.7070 C.ar    1  UNL1       -0.0750
     63 C         -33.1940    3.3840   32.9220 C.ar    1  UNL1       -0.0820
     64 H         -34.9050    4.5580   33.5130 H       1  UNL1        0.0840
     65 C         -32.3070    3.0700   31.8880 C.ar    1  UNL1       -0.0830
     66 H         -33.0890    2.9080   33.8970 H       1  UNL1        0.0830
     67 C         -32.4470    3.6830   30.6500 C.ar    1  UNL1       -0.0820
     68 H         -31.5070    2.3470   32.0480 H       1  UNL1        0.0830
     69 C         -33.4660    4.6060   30.4300 C.ar    1  UNL1       -0.0750
     70 H         -31.7520    3.4370   29.8460 H       1  UNL1        0.0830
     71 H         -33.5700    5.0820   29.4550 H       1  UNL1        0.0840
     72 C         -33.1220   10.5400   28.5620 C.3     1  UNL1       -0.0390
     73 H         -33.3460    9.6650   29.1720 H       1  UNL1        0.0360
     74 H         -32.3650   10.4800   27.7800 H       1  UNL1        0.0360
     75 C         -32.6800   11.7120   29.5610 C.3     1  UNL1       -0.0010
     76 C         -31.2210   12.3170   29.1030 C.3     1  UNL1       -0.0350
     77 C         -30.3950   12.3240   30.1760 C.3     1  UNL1        0.0850
     78 H         -30.7330   11.6320   28.4100 H       1  UNL1        0.0360
     79 H         -31.3170   13.3730   28.8480 H       1  UNL1        0.0360
     80 N         -31.0490   11.4780   31.2420 N.4     1  UNL1       -0.0490
     81 H         -29.4810   11.8320   29.8430 H       1  UNL1        0.0750
     82 H         -30.3650   13.3590   30.5140 H       1  UNL1        0.0750
     83 C         -32.5810   11.2800   30.7740 C.3     1  UNL1        0.1930
     84 H         -30.5870   10.5800   31.2180 H       1  UNL1        0.2800
     85 H         -31.0390   12.0280   32.0890 H       1  UNL1        0.2800
     86 H         -33.3830   11.8440   31.2510 H       1  UNL1        0.1290
     87 H         -33.4810   12.4300   29.7360 H       1  UNL1        0.0460
     88 O         -32.9590    9.9070   30.8890 O.3     1  UNL1       -0.3690
     89 H         -33.8690    9.8500   31.1890 H       1  UNL1        0.2120
     90 C         -36.6850   14.9560   26.0150 C.3     1  UNL1       -0.0350
     91 H         -36.3660   14.7580   24.9920 H       1  UNL1        0.0370
     92 H         -37.5230   14.4040   26.4410 H       1  UNL1        0.0370
     93 C         -37.0780   16.4670   26.0690 C.3     1  UNL1       -0.0590
     94 H         -36.2750   16.9990   26.5790 H       1  UNL1        0.0380
     95 C         -37.2310   17.0870   24.6440 C.3     1  UNL1       -0.0730
     96 H         -37.1370   18.1710   24.7070 H       1  UNL1        0.0280
     97 H         -36.4530   16.6930   23.9900 H       1  UNL1        0.0280
     98 H         -38.2100   16.8310   24.2390 H       1  UNL1        0.0280
     99 C         -38.3530   16.6700   26.8920 C.3     1  UNL1       -0.0730
    100 H         -39.2250   16.4930   26.2610 H       1  UNL1        0.0280
    101 H         -38.3620   15.9710   27.7280 H       1  UNL1        0.0280
    102 H         -38.3810   17.6910   27.2720 H       1  UNL1        0.0280
@<TRIPOS>BOND
     1    32    29    1
     2    24    23   ar
     3    24    19   ar
     4    17    16    2
     5    30    29    1
     6    23    21   ar
     7    29    31    1
     8    29    13    1
     9    28    25    1
    10    19    16    1
    11    19    20   ar
    12    16    15   am
    13    21    20   ar
    14    21    25    1
    15    20    22    1
    16    14    13    1
    17    25    26    1
    18    25    27    1
    19    15    13    1
    20    15    18    1
    21    97    95    1
    22    13    10    1
    23    98    95    1
    24    95    96    1
    25    95    93    1
    26    12     9    1
    27    91    90    1
    28    36    35    1
    29    10     9   am
    30    10    11    2
    31     6     3    1
    32     9     7    1
    33    44    43    2
    34    37    35    1
    35    34    33    1
    36    90    93    1
    37    90    92    1
    38    90     1    1
    39    93    94    1
    40    93    99    1
    41    35    33    1
    42    35    38    1
    43   100    99    1
    44     3     1    1
    45     3     4   am
    46    33     7    1
    47    33    39    1
    48    43     1    1
    49    43    45   am
    50    48    47    1
    51     7     4    1
    52     7     8    1
    53     1     2    1
    54    99   102    1
    55    99   101    1
    56     4     5    2
    57    74    72    1
    58    53    52    1
    59    51    49    1
    60    47    45    1
    61    47    49    1
    62    47    72    1
    63    45    46    1
    64    39    41    1
    65    39    40    1
    66    39    42    1
    67    54    52    1
    68    78    76    1
    69    52    49    1
    70    52    55    1
    71    49    50    1
    72    72    73    1
    73    72    75    1
    74    79    76    1
    75    76    75    1
    76    76    77    1
    77    71    69    1
    78    75    87    1
    79    75    83    1
    80    55    57    1
    81    55    56    2
    82    81    77    1
    83    70    67    1
    84    57    58    1
    85    77    82    1
    86    77    80    1
    87    69    67   ar
    88    69    61   ar
    89    67    65   ar
    90    83    88    1
    91    83    80    1
    92    83    86    1
    93    88    89    1
    94    84    80    1
    95    58    60    1
    96    58    61    1
    97    58    59    1
    98    80    85    1
    99    61    62   ar
   100    65    68    1
   101    65    63   ar
   102    62    63   ar
   103    62    64    1
   104    63    66    1
@<TRIPOS>MOLECULE
crystal_redock_e32_er3_1.pdbqt
 102 104 0 0 0
SMALL
GASTEIGER

@<TRIPOS>ATOM
      1 C         -35.6880   10.0270   26.2960 C.3     1  UNL1        0.0890
      2 H         -36.7410    9.8980   26.5500 H       1  UNL1        0.0870
      3 N         -34.9230    9.9140   27.5290 N.am    1  UNL1       -0.3460
      4 C         -35.5640   10.2350   28.8550 C.2     1  UNL1        0.2410
      5 O         -36.6970   10.5840   28.9050 O.2     1  UNL1       -0.2710
      6 H         -33.9600    9.6170   27.4640 H       1  UNL1        0.1630
      7 C         -34.7590   10.1070   30.1220 C.3     1  UNL1        0.0920
      8 H         -34.1620    9.1960   30.0770 H       1  UNL1        0.0880
      9 N         -33.8260   11.2330   30.2230 N.am    1  UNL1       -0.3460
     10 C         -32.5750   11.1990   29.5050 C.2     1  UNL1        0.2400
     11 O         -32.3040   10.2740   28.8420 O.2     1  UNL1       -0.2710
     12 H         -34.0450   12.0380   30.7930 H       1  UNL1        0.1630
     13 C         -31.5850   12.3990   29.6190 C.3     1  UNL1        0.0860
     14 H         -30.7550   12.3300   28.9160 H       1  UNL1        0.0860
     15 N         -32.2940   13.6280   29.3060 N.am    1  UNL1       -0.3430
     16 C         -31.7230   14.5630   28.3340 C.2     1  UNL1        0.2730
     17 O         -30.6910   14.3190   27.8120 O.2     1  UNL1       -0.2660
     18 H         -33.1750   13.8300   29.7590 H       1  UNL1        0.1630
     19 C         -32.4640   15.8660   27.9920 C.ar    1  UNL1        0.1540
     20 C         -32.5190   16.5210   26.7210 C.ar    1  UNL1       -0.0170
     21 C         -33.3190   17.6650   26.9360 C.ar    1  UNL1        0.0770
     22 H         -32.0500   16.2130   25.7860 H       1  UNL1        0.0910
     23 O         -33.6770   17.6580   28.1870 O.2     1  UNL1       -0.2180
     24 N         -33.1900   16.6180   28.8240 N.ar    1  UNL1       -0.1230
     25 C         -33.6930   18.7120   25.8960 C.3     1  UNL1       -0.0290
     26 H         -34.7770   18.7490   25.7910 H       1  UNL1        0.0360
     27 H         -33.3260   19.6870   26.2140 H       1  UNL1        0.0360
     28 H         -33.2440   18.4500   24.9380 H       1  UNL1        0.0360
     29 C         -31.0310   12.4650   31.0200 C.3     1  UNL1       -0.0490
     30 H         -30.5550   11.5160   31.2680 H       1  UNL1        0.0300
     31 H         -30.2950   13.2670   31.0820 H       1  UNL1        0.0300
     32 H         -31.8410   12.6600   31.7230 H       1  UNL1        0.0300
     33 C         -35.7170   10.1190   31.3490 C.3     1  UNL1       -0.0330
     34 H         -36.6480   10.5900   31.0340 H       1  UNL1        0.0420
     35 C         -36.0590    8.6700   31.8170 C.3     1  UNL1       -0.0710
     36 H         -35.2700    8.3040   32.4740 H       1  UNL1        0.0280
     37 H         -37.0070    8.6760   32.3550 H       1  UNL1        0.0280
     38 H         -36.1390    8.0170   30.9470 H       1  UNL1        0.0280
     39 C         -35.1180   10.9650   32.5180 C.3     1  UNL1       -0.0710
     40 H         -34.8060   10.3010   33.3240 H       1  UNL1        0.0280
     41 H         -34.2570   11.5270   32.1560 H       1  UNL1        0.0280
     42 H         -35.8730   11.6580   32.8890 H       1  UNL1        0.0280
     43 C         -35.1870    8.9410   25.3010 C.2     1  UNL1        0.2400
     44 O         -35.9620    8.1850   24.8120 O.2     1  UNL1       -0.2710
     45 N         -33.7410    8.8510   24.9500 N.am    1  UNL1       -0.3550
     46 H         -33.0740    9.4910   25.3550 H       1  UNL1        0.1620
     47 C         -33.2810    7.8140   24.0010 C.3     1  UNL1        0.0130
     48 H         -34.1560    7.2650   23.6540 H       1  UNL1        0.0720
     49 C         -32.3290    6.8760   24.7090 C.3     1  UNL1       -0.0380
     50 H         -31.8910    6.2550   23.9270 H       1  UNL1        0.0360
     51 H         -31.6910    7.5120   25.3230 H       1  UNL1        0.0360
     52 C         -33.0480    5.9130   25.6790 C.3     1  UNL1        0.0180
     53 H         -34.0850    5.8780   25.3470 H       1  UNL1        0.0480
     54 H         -32.4490    5.0020   25.6890 H       1  UNL1        0.0480
     55 C         -33.0860    6.4160   27.1480 C.2     1  UNL1        0.2590
     56 O         -32.6250    7.4730   27.4360 O.2     1  UNL1       -0.2650
     57 O         -33.6680    5.5930   28.1520 O.3     1  UNL1       -0.3170
     58 C         -32.8690    4.4630   28.5130 C.3     1  UNL1        0.0520
     59 H         -33.2800    3.6210   27.9560 H       1  UNL1        0.0820
     60 H         -31.8350    4.7690   28.3540 H       1  UNL1        0.0820
     61 C         -33.0740    4.1960   30.0280 C.ar    1  UNL1       -0.0340
     62 C         -34.1010    4.8350   30.7160 C.ar    1  UNL1       -0.0750
     63 C         -34.2860    4.5950   32.0760 C.ar    1  UNL1       -0.0820
     64 H         -34.7620    5.5230   30.1880 H       1  UNL1        0.0840
     65 C         -33.4360    3.7140   32.7510 C.ar    1  UNL1       -0.0830
     66 H         -35.0920    5.0960   32.6120 H       1  UNL1        0.0830
     67 C         -32.4100    3.0820   32.0620 C.ar    1  UNL1       -0.0820
     68 H         -33.5730    3.5210   33.8150 H       1  UNL1        0.0830
     69 C         -32.2240    3.3170   30.7010 C.ar    1  UNL1       -0.0750
     70 H         -31.7480    2.3970   32.5920 H       1  UNL1        0.0830
     71 H         -31.4170    2.8150   30.1670 H       1  UNL1        0.0840
     72 C         -32.5650    8.4720   22.8240 C.3     1  UNL1       -0.0390
     73 H         -32.4970    7.7000   22.0570 H       1  UNL1        0.0360
     74 H         -33.1190    9.3900   22.6240 H       1  UNL1        0.0360
     75 C         -31.0680    8.8970   23.2020 C.3     1  UNL1       -0.0010
     76 C         -30.9790   10.5280   23.3930 C.3     1  UNL1       -0.0350
     77 C         -29.9580   11.0000   22.6390 C.3     1  UNL1        0.0850
     78 H         -31.8580   11.0030   22.9580 H       1  UNL1        0.0360
     79 H         -30.6770   10.7690   24.4120 H       1  UNL1        0.0360
     80 N         -29.5510    9.8900   21.7010 N.4     1  UNL1       -0.0490
     81 H         -30.3800   11.8200   22.0580 H       1  UNL1        0.0750
     82 H         -29.1440   11.1910   23.3380 H       1  UNL1        0.0750
     83 C         -30.2350    8.5470   22.2790 C.3     1  UNL1        0.1930
     84 H         -29.9670   10.1040   20.8060 H       1  UNL1        0.2800
     85 H         -28.5480    9.8010   21.7830 H       1  UNL1        0.2800
     86 H         -29.6400    7.8100   22.8180 H       1  UNL1        0.1290
     87 H         -30.6530    8.2810   24.0000 H       1  UNL1        0.0460
     88 O         -30.8730    7.8260   21.2230 O.3     1  UNL1       -0.3690
     89 H         -30.6630    6.8920   21.3010 H       1  UNL1        0.2120
     90 C         -35.4680   11.4080   25.7000 C.3     1  UNL1       -0.0350
     91 H         -35.0000   11.2330   24.7310 H       1  UNL1        0.0370
     92 H         -36.4370   11.9040   25.7550 H       1  UNL1        0.0370
     93 C         -34.4720   12.2910   26.5160 C.3     1  UNL1       -0.0590
     94 H         -34.2780   11.7840   27.4620 H       1  UNL1        0.0380
     95 C         -33.1040   12.4690   25.7830 C.3     1  UNL1       -0.0730
     96 H         -32.6420   13.4050   26.0960 H       1  UNL1        0.0280
     97 H         -32.4450   11.6380   26.0340 H       1  UNL1        0.0280
     98 H         -33.2690   12.4880   24.7060 H       1  UNL1        0.0280
     99 C         -35.0920   13.6510   26.8480 C.3     1  UNL1       -0.0730
    100 H         -36.1080   13.6930   26.4530 H       1  UNL1        0.0280
    101 H         -35.1180   13.7850   27.9300 H       1  UNL1        0.0280
    102 H         -34.4940   14.4430   26.3990 H       1  UNL1        0.0280
@<TRIPOS>BOND
     1    84    80    1
     2    88    89    1
     3    88    83    1
     4    80    85    1
     5    80    83    1
     6    80    77    1
     7    73    72    1
     8    81    77    1
     9    83    86    1
    10    83    75    1
    11    74    72    1
    12    77    82    1
    13    77    76    1
    14    72    75    1
    15    72    47    1
    16    78    76    1
    17    75    76    1
    18    75    87    1
    19    76    79    1
    20    48    47    1
    21    50    49    1
    22    47    49    1
    23    47    45    1
    24    98    95    1
    25    49    51    1
    26    49    52    1
    27    91    90    1
    28    44    43    2
    29    28    25    1
    30    45    43   am
    31    45    46    1
    32    43     1    1
    33    53    52    1
    34    52    54    1
    35    52    55    1
    36    90    92    1
    37    90     1    1
    38    90    93    1
    39    95    97    1
    40    95    96    1
    41    95    93    1
    42    22    20    1
    43    26    25    1
    44    25    27    1
    45    25    21    1
    46     1     2    1
    47     1     3    1
    48   102    99    1
    49   100    99    1
    50    93    99    1
    51    93    94    1
    52    20    21   ar
    53    20    19   ar
    54    99   101    1
    55    21    23   ar
    56    55    56    2
    57    55    57    1
    58     6     3    1
    59     3     4   am
    60    17    16    2
    61    59    58    1
    62    19    16    1
    63    19    24   ar
    64    57    58    1
    65    23    24   ar
    66    16    15   am
    67    60    58    1
    68    58    61    1
    69    11    10    2
    70     4     5    2
    71     4     7    1
    72    14    13    1
    73    15    13    1
    74    15    18    1
    75    10    13    1
    76    10     9   am
    77    13    29    1
    78    61    69   ar
    79    61    62   ar
    80     8     7    1
    81     7     9    1
    82     7    33    1
    83    71    69    1
    84    64    62    1
    85     9    12    1
    86    69    67   ar
    87    62    63   ar
    88    38    35    1
    89    29    31    1
    90    29    30    1
    91    29    32    1
    92    34    33    1
    93    33    35    1
    94    33    39    1
    95    35    37    1
    96    35    36    1
    97    67    70    1
    98    67    65   ar
    99    63    66    1
   100    63    65   ar
   101    41    39    1
   102    39    42    1
   103    39    40    1
   104    65    68    1
@<TRIPOS>MOLECULE
crystal_redock_e32_er3_1.pdbqt
 102 104 0 0 0
SMALL
GASTEIGER

@<TRIPOS>ATOM
      1 C         -34.4860    9.1020   30.0940 C.3     1  UNL1        0.0890
      2 H         -35.4950    9.4040   29.8130 H       1  UNL1        0.0870
      3 N         -34.1160    7.9710   29.2560 N.am    1  UNL1       -0.3460
      4 C         -35.1440    7.3100   28.3730 C.2     1  UNL1        0.2410
      5 O         -36.2630    7.7040   28.3560 O.2     1  UNL1       -0.2710
      6 H         -33.1590    7.6500   29.2870 H       1  UNL1        0.1630
      7 C         -34.7420    6.1450   27.5070 C.3     1  UNL1        0.0920
      8 H         -35.4990    5.3640   27.5830 H       1  UNL1        0.0880
      9 N         -34.6980    6.5690   26.1050 N.am    1  UNL1       -0.3460
     10 C         -35.2280    5.7100   25.0740 C.2     1  UNL1        0.2400
     11 O         -35.6920    4.6730   25.3560 O.2     1  UNL1       -0.2710
     12 H         -34.2990    7.4610   25.8460 H       1  UNL1        0.1630
     13 C         -35.1750    6.1660   23.5830 C.3     1  UNL1        0.0860
     14 H         -35.7820    7.0510   23.3910 H       1  UNL1        0.0860
     15 N         -33.8060    6.5210   23.2470 N.am    1  UNL1       -0.3430
     16 C         -33.3700    7.9140   23.3690 C.2     1  UNL1        0.2730
     17 O         -34.1300    8.7420   23.7350 O.2     1  UNL1       -0.2660
     18 H         -33.1640    5.8070   22.9320 H       1  UNL1        0.1630
     19 C         -31.9260    8.3020   23.0180 C.ar    1  UNL1        0.1540
     20 C         -30.7830    7.4420   22.9830 C.ar    1  UNL1       -0.0170
     21 C         -29.7090    8.2790   22.6080 C.ar    1  UNL1        0.0770
     22 H         -30.7400    6.3730   23.1960 H       1  UNL1        0.0910
     23 O         -30.1890    9.4770   22.4480 O.2     1  UNL1       -0.2180
     24 N         -31.4800    9.5160   22.6820 N.ar    1  UNL1       -0.1230
     25 C         -28.2570    7.8550   22.4250 C.3     1  UNL1       -0.0290
     26 H         -27.6370    8.3520   23.1700 H       1  UNL1        0.0360
     27 H         -28.1760    6.7760   22.5460 H       1  UNL1        0.0360
     28 H         -27.9210    8.1350   21.4260 H       1  UNL1        0.0360
     29 C         -35.6510    5.0460   22.6950 C.3     1  UNL1       -0.0490
     30 H         -36.5870    5.3340   22.2170 H       1  UNL1        0.0300
     31 H         -34.9010    4.8440   21.9310 H       1  UNL1        0.0300
     32 H         -35.8100    4.1490   23.2940 H       1  UNL1        0.0300
     33 C         -33.3340    5.6390   27.9380 C.3     1  UNL1       -0.0330
     34 H         -33.1070    6.0860   28.9060 H       1  UNL1        0.0420
     35 C         -33.3180    4.0900   28.1210 C.3     1  UNL1       -0.0710
     36 H         -32.3640    3.7850   28.5510 H       1  UNL1        0.0280
     37 H         -34.1280    3.7940   28.7880 H       1  UNL1        0.0280
     38 H         -33.4500    3.6080   27.1520 H       1  UNL1        0.0280
     39 C         -32.2400    6.1010   26.9230 C.3     1  UNL1       -0.0710
     40 H         -31.2540    5.8330   27.3050 H       1  UNL1        0.0280
     41 H         -32.4040    5.6110   25.9630 H       1  UNL1        0.0280
     42 H         -32.2980    7.1820   26.7930 H       1  UNL1        0.0280
     43 C         -33.4500   10.2410   29.8750 C.2     1  UNL1        0.2400
     44 O         -32.6370   10.4710   30.7120 O.2     1  UNL1       -0.2710
     45 N         -33.4640   11.0410   28.6170 N.am    1  UNL1       -0.3550
     46 H         -34.1460   10.8520   27.8970 H       1  UNL1        0.1620
     47 C         -32.4720   12.1200   28.4230 C.3     1  UNL1        0.0130
     48 H         -31.4790   11.6880   28.5480 H       1  UNL1        0.0720
     49 C         -32.6990   13.2000   29.4560 C.3     1  UNL1       -0.0380
     50 H         -33.5580   13.7700   29.1010 H       1  UNL1        0.0360
     51 H         -32.7450   12.6850   30.4150 H       1  UNL1        0.0360
     52 C         -31.5230   14.1960   29.5510 C.3     1  UNL1        0.0180
     53 H         -31.0320   13.9830   30.4990 H       1  UNL1        0.0480
     54 H         -30.9720   14.0920   28.6160 H       1  UNL1        0.0480
     55 C         -31.9660   15.6830   29.6230 C.2     1  UNL1        0.2590
     56 O         -31.3730   16.4570   30.3030 O.2     1  UNL1       -0.2650
     57 O         -33.0980   16.1100   28.8750 O.3     1  UNL1       -0.3170
     58 C         -32.8270   16.3440   27.4900 C.3     1  UNL1        0.0520
     59 H         -31.7490   16.2350   27.3780 H       1  UNL1        0.0820
     60 H         -33.5020   15.6860   26.9430 H       1  UNL1        0.0820
     61 C         -33.2080   17.8140   27.1700 C.ar    1  UNL1       -0.0340
     62 C         -34.1440   18.0910   26.1780 C.ar    1  UNL1       -0.0750
     63 C         -34.4850   19.4120   25.8900 C.ar    1  UNL1       -0.0820
     64 H         -34.6090   17.2740   25.6270 H       1  UNL1        0.0840
     65 C         -33.8850   20.4580   26.5960 C.ar    1  UNL1       -0.0830
     66 H         -35.2210   19.6250   25.1130 H       1  UNL1        0.0830
     67 C         -32.9490   20.1770   27.5820 C.ar    1  UNL1       -0.0820
     68 H         -34.1470   21.4930   26.3770 H       1  UNL1        0.0830
     69 C         -32.6060   18.8580   27.8750 C.ar    1  UNL1       -0.0750
     70 H         -32.4810   20.9950   28.1290 H       1  UNL1        0.0830
     71 H         -31.8710   18.6460   28.6510 H       1  UNL1        0.0840
     72 C         -32.6200   12.7120   27.0230 C.3     1  UNL1       -0.0390
     73 H         -33.3820   12.1070   26.5310 H       1  UNL1        0.0360
     74 H         -32.7870   13.7790   27.1760 H       1  UNL1        0.0360
     75 C         -31.2730   12.5620   26.1700 C.3     1  UNL1       -0.0010
     76 C         -30.9970   13.9370   25.3110 C.3     1  UNL1       -0.0350
     77 C         -30.7820   13.6070   24.0150 C.3     1  UNL1        0.0850
     78 H         -31.9030   14.5420   25.2730 H       1  UNL1        0.0360
     79 H         -30.0530   14.3880   25.6190 H       1  UNL1        0.0360
     80 N         -31.2080   12.1690   23.8500 N.4     1  UNL1       -0.0490
     81 H         -31.4510   14.2450   23.4380 H       1  UNL1        0.0750
     82 H         -29.7040   13.6770   23.8720 H       1  UNL1        0.0750
     83 C         -31.3510   11.5730   25.3430 C.3     1  UNL1        0.1930
     84 H         -32.1230   12.1880   23.4230 H       1  UNL1        0.2800
     85 H         -30.4450   11.6960   23.3860 H       1  UNL1        0.2800
     86 H         -30.5850   10.9130   25.7520 H       1  UNL1        0.1290
     87 H         -30.4460   12.1760   26.7670 H       1  UNL1        0.0460
     88 O         -32.5800   10.8570   25.4740 O.3     1  UNL1       -0.3690
     89 H         -32.7470   10.6730   26.4010 H       1  UNL1        0.2120
     90 C         -34.4660    8.6670   31.5510 C.3     1  UNL1       -0.0350
     91 H         -34.6260    7.5890   31.5320 H       1  UNL1        0.0370
     92 H         -33.5420    9.0740   31.9620 H       1  UNL1        0.0370
     93 C         -35.6300    9.2690   32.4010 C.3     1  UNL1       -0.0590
     94 H         -35.7990    8.6050   33.2480 H       1  UNL1        0.0380
     95 C         -35.2770   10.6820   32.9660 C.3     1  UNL1       -0.0730
     96 H         -34.2850   10.9740   32.6210 H       1  UNL1        0.0280
     97 H         -36.0110   11.4080   32.6160 H       1  UNL1        0.0280
     98 H         -35.2880   10.6510   34.0550 H       1  UNL1        0.0280
     99 C         -36.9300    9.3150   31.5930 C.3     1  UNL1       -0.0730
    100 H         -36.8850    8.5780   30.7900 H       1  UNL1        0.0280
    101 H         -37.7730    9.0890   32.2470 H       1  UNL1        0.0280
    102 H         -37.0580   10.3100   31.1670 H       1  UNL1        0.0280
@<TRIPOS>BOND
     1    28    25    1
     2    31    29    1
     3    30    29    1
     4    25    27    1
     5    25    21    1
     6    25    26    1
     7    23    21   ar
     8    23    24   ar
     9    21    20   ar
    10    24    19   ar
    11    29    32    1
    12    29    13    1
    13    18    15    1
    14    20    19   ar
    15    20    22    1
    16    19    16    1
    17    15    16   am
    18    15    13    1
    19    16    17    2
    20    85    80    1
    21    14    13    1
    22    84    80    1
    23    81    77    1
    24    13    10    1
    25    80    77    1
    26    80    83    1
    27    82    77    1
    28    77    76    1
    29    10    11    2
    30    10     9   am
    31    66    63    1
    32    78    76    1
    33    76    79    1
    34    76    75    1
    35    83    88    1
    36    83    86    1
    37    83    75    1
    38    88    89    1
    39    64    62    1
    40    12     9    1
    41    63    62   ar
    42    63    65   ar
    43    41    39    1
    44     9     7    1
    45    75    87    1
    46    75    72    1
    47    62    61   ar
    48    68    65    1
    49    73    72    1
    50    65    67   ar
    51    42    39    1
    52    39    40    1
    53    39    33    1
    54    60    58    1
    55    72    74    1
    56    72    47    1
    57    38    35    1
    58    61    58    1
    59    61    69   ar
    60    59    58    1
    61    58    57    1
    62     7     8    1
    63     7    33    1
    64     7     4    1
    65    67    69   ar
    66    67    70    1
    67    69    71    1
    68    46    45    1
    69    33    35    1
    70    33    34    1
    71    35    36    1
    72    35    37    1
    73     5     4    2
    74     4     3   am
    75    47    48    1
    76    47    45    1
    77    47    49    1
    78    54    52    1
    79    45    43   am
    80    57    55    1
    81    50    49    1
    82     3     6    1
    83     3     1    1
    84    49    52    1
    85    49    51    1
    86    52    55    1
    87    52    53    1
    88    55    56    2
    89     2     1    1
    90    43     1    1
    91    43    44    2
    92     1    90    1
    93   100    99    1
    94   102    99    1
    95    91    90    1
    96    90    92    1
    97    90    93    1
    98    99   101    1
    99    99    93    1
   100    93    95    1
   101    93    94    1
   102    97    95    1
   103    96    95    1
   104    95    98    1
@<TRIPOS>MOLECULE
crystal_redock_e32_er3_1.pdbqt
 102 104 0 0 0
SMALL
GASTEIGER

@<TRIPOS>ATOM
      1 C         -32.8160   13.0240   28.0770 C.3     1  UNL1        0.0890
      2 H         -33.8970   13.1280   27.9770 H       1  UNL1        0.0870
      3 N         -32.4500   11.7210   27.5420 N.am    1  UNL1       -0.3460
      4 C         -33.0990   11.2040   26.2830 C.2     1  UNL1        0.2410
      5 O         -33.9170   11.8540   25.7190 O.2     1  UNL1       -0.2710
      6 H         -31.7540   11.1820   28.0380 H       1  UNL1        0.1630
      7 C         -32.7040    9.8560   25.7410 C.3     1  UNL1        0.0920
      8 H         -31.7480    9.5610   26.1740 H       1  UNL1        0.0880
      9 N         -33.6930    8.8540   26.1520 N.am    1  UNL1       -0.3460
     10 C         -33.6850    8.3460   27.5020 C.2     1  UNL1        0.2400
     11 O         -32.8900    8.7310   28.2690 O.2     1  UNL1       -0.2710
     12 H         -34.3850    8.5120   25.5000 H       1  UNL1        0.1630
     13 C         -34.7380    7.2780   27.9330 C.3     1  UNL1        0.0860
     14 H         -34.8730    6.4940   27.1880 H       1  UNL1        0.0860
     15 N         -34.2770    6.6240   29.1460 N.am    1  UNL1       -0.3430
     16 C         -34.0000    5.1860   29.1300 C.2     1  UNL1        0.2730
     17 O         -34.1530    4.5640   28.1360 O.2     1  UNL1       -0.2660
     18 H         -34.1510    7.1630   29.9910 H       1  UNL1        0.1630
     19 C         -33.5100    4.4820   30.4050 C.ar    1  UNL1        0.1540
     20 C         -32.4220    3.5610   30.5200 C.ar    1  UNL1       -0.0170
     21 C         -32.3870    3.2090   31.8880 C.ar    1  UNL1        0.0770
     22 H         -31.7590    3.2020   29.7320 H       1  UNL1        0.0910
     23 O         -33.3460    3.8590   32.4800 O.2     1  UNL1       -0.2180
     24 N         -34.0160    4.6080   31.6350 N.ar    1  UNL1       -0.1230
     25 C         -31.4060    2.2470   32.5470 C.3     1  UNL1       -0.0290
     26 H         -31.1740    1.4360   31.8570 H       1  UNL1        0.0360
     27 H         -30.4910    2.7800   32.8010 H       1  UNL1        0.0360
     28 H         -31.8520    1.8380   33.4530 H       1  UNL1        0.0360
     29 C         -36.0660    7.9490   28.1800 C.3     1  UNL1       -0.0490
     30 H         -35.9850    9.0110   27.9480 H       1  UNL1        0.0300
     31 H         -36.8250    7.4950   27.5440 H       1  UNL1        0.0300
     32 H         -36.3460    7.8250   29.2260 H       1  UNL1        0.0300
     33 C         -32.6490    9.9180   24.1860 C.3     1  UNL1       -0.0330
     34 H         -33.0880   10.8670   23.8790 H       1  UNL1        0.0420
     35 C         -31.1770    9.8940   23.6690 C.3     1  UNL1       -0.0710
     36 H         -30.5850    9.2190   24.2880 H       1  UNL1        0.0280
     37 H         -31.1610    9.5470   22.6360 H       1  UNL1        0.0280
     38 H         -30.7560   10.8980   23.7220 H       1  UNL1        0.0280
     39 C         -33.4920    8.7660   23.5500 C.3     1  UNL1       -0.0710
     40 H         -33.9200    8.1500   24.3410 H       1  UNL1        0.0280
     41 H         -34.2940    9.1940   22.9470 H       1  UNL1        0.0280
     42 H         -32.8500    8.1530   22.9170 H       1  UNL1        0.0280
     43 C         -32.0460   14.1190   27.2840 C.2     1  UNL1        0.2400
     44 O         -30.9770   14.4790   27.6600 O.2     1  UNL1       -0.2710
     45 N         -32.6360   14.7110   26.0500 N.am    1  UNL1       -0.3550
     46 H         -33.5410   14.4100   25.7180 H       1  UNL1        0.1620
     47 C         -31.8910   15.7500   25.3070 C.3     1  UNL1        0.0130
     48 H         -30.8390   15.6670   25.5780 H       1  UNL1        0.0720
     49 C         -32.4170   17.1140   25.6910 C.3     1  UNL1       -0.0380
     50 H         -31.6710   17.5400   26.3620 H       1  UNL1        0.0360
     51 H         -32.6540   17.6140   24.7510 H       1  UNL1        0.0360
     52 C         -33.7350   17.0440   26.4930 C.3     1  UNL1        0.0180
     53 H         -34.4480   17.6570   25.9420 H       1  UNL1        0.0480
     54 H         -33.9320   15.9830   26.6450 H       1  UNL1        0.0480
     55 C         -33.6390   17.6700   27.9120 C.2     1  UNL1        0.2590
     56 O         -32.8850   17.2280   28.7160 O.2     1  UNL1       -0.2650
     57 O         -34.4740   18.7730   28.2450 O.3     1  UNL1       -0.3170
     58 C         -34.2610   19.9300   27.4320 C.3     1  UNL1        0.0520
     59 H         -34.0570   20.7450   28.1270 H       1  UNL1        0.0820
     60 H         -33.5110   19.6410   26.6970 H       1  UNL1        0.0820
     61 C         -35.5860   20.2410   26.6860 C.ar    1  UNL1       -0.0340
     62 C         -35.7850   19.7670   25.3930 C.ar    1  UNL1       -0.0750
     63 C         -36.9750   20.0460   24.7220 C.ar    1  UNL1       -0.0820
     64 H         -35.0090   19.1760   24.9050 H       1  UNL1        0.0840
     65 C         -37.9670   20.8060   25.3480 C.ar    1  UNL1       -0.0830
     66 H         -37.1290   19.6710   23.7100 H       1  UNL1        0.0830
     67 C         -37.7620   21.2800   26.6370 C.ar    1  UNL1       -0.0820
     68 H         -38.9000   21.0280   24.8310 H       1  UNL1        0.0830
     69 C         -36.5760   21.0010   27.3120 C.ar    1  UNL1       -0.0750
     70 H         -38.5370   21.8750   27.1210 H       1  UNL1        0.0830
     71 H         -36.4230   21.3770   28.3240 H       1  UNL1        0.0840
     72 C         -32.0700   15.5390   23.8050 C.3     1  UNL1       -0.0390
     73 H         -32.4770   14.5330   23.7000 H       1  UNL1        0.0360
     74 H         -32.6440   16.3980   23.4580 H       1  UNL1        0.0360
     75 C         -30.6670   15.5650   23.0310 C.3     1  UNL1       -0.0010
     76 C         -30.8650   16.2150   21.5340 C.3     1  UNL1       -0.0350
     77 C         -30.3230   15.3760   20.6190 C.3     1  UNL1        0.0850
     78 H         -31.9220   16.2320   21.2710 H       1  UNL1        0.0360
     79 H         -30.2640   17.1200   21.4370 H       1  UNL1        0.0360
     80 N         -30.0670   14.0640   21.3200 N.4     1  UNL1       -0.0490
     81 H         -31.0960   15.2310   19.8640 H       1  UNL1        0.0750
     82 H         -29.3690   15.8230   20.3430 H       1  UNL1        0.0750
     83 C         -30.1840   14.3740   22.9000 C.3     1  UNL1        0.1930
     84 H         -30.8220   13.4470   21.0570 H       1  UNL1        0.2800
     85 H         -29.1120   13.8100   21.1110 H       1  UNL1        0.2800
     86 H         -29.2880   14.4550   23.5160 H       1  UNL1        0.1290
     87 H         -29.8640   15.9710   23.6470 H       1  UNL1        0.0460
     88 O         -30.9980   13.3890   23.5370 O.3     1  UNL1       -0.3690
     89 H         -31.5060   12.9150   22.8740 H       1  UNL1        0.2120
     90 C         -32.4250   13.0860   29.5440 C.3     1  UNL1       -0.0350
     91 H         -31.5650   13.7530   29.5860 H       1  UNL1        0.0370
     92 H         -33.3410   13.3430   30.0760 H       1  UNL1        0.0370
     93 C         -31.9480   11.7160   30.1240 C.3     1  UNL1       -0.0590
     94 H         -31.7800   11.0420   29.2840 H       1  UNL1        0.0380
     95 C         -30.6030   11.8440   30.9090 C.3     1  UNL1       -0.0730
     96 H         -29.9680   10.9880   30.6840 H       1  UNL1        0.0280
     97 H         -30.0950   12.7610   30.6110 H       1  UNL1        0.0280
     98 H         -30.8080   11.8740   31.9790 H       1  UNL1        0.0280
     99 C         -33.0330   11.0860   31.0020 C.3     1  UNL1       -0.0730
    100 H         -33.6880   10.4700   30.3850 H       1  UNL1        0.0280
    101 H         -32.5660   10.4660   31.7670 H       1  UNL1        0.0280
    102 H         -33.6160   11.8730   31.4790 H       1  UNL1        0.0280
@<TRIPOS>BOND
     1    81    77    1
     2    82    77    1
     3    77    80    1
     4    77    76    1
     5    84    80    1
     6    85    80    1
     7    78    76    1
     8    80    83    1
     9    79    76    1
    10    76    75    1
    11    37    35    1
    12    89    88    1
    13    83    75    1
    14    83    86    1
    15    83    88    1
    16    42    39    1
    17    41    39    1
    18    75    87    1
    19    75    72    1
    20    74    72    1
    21    39    33    1
    22    39    40    1
    23    35    38    1
    24    35    33    1
    25    35    36    1
    26    73    72    1
    27    66    63    1
    28    72    47    1
    29    34    33    1
    30    33     7    1
    31    63    65   ar
    32    63    62   ar
    33    51    49    1
    34    68    65    1
    35    64    62    1
    36    47    48    1
    37    47    49    1
    38    47    45    1
    39    65    67   ar
    40    62    61   ar
    41    12     9    1
    42    49    50    1
    43    49    52    1
    44    46    45    1
    45     5     4    2
    46     7     9    1
    47     7     8    1
    48     7     4    1
    49    53    52    1
    50    45    43   am
    51     9    10   am
    52     4     3   am
    53    52    54    1
    54    52    55    1
    55    67    70    1
    56    67    69   ar
    57    61    69   ar
    58    61    58    1
    59    60    58    1
    60    14    13    1
    61    43    44    2
    62    43     1    1
    63    69    71    1
    64    58    59    1
    65    58    57    1
    66    10    13    1
    67    10    11    2
    68     3     6    1
    69     3     1    1
    70    31    29    1
    71    55    57    1
    72    55    56    2
    73    13    29    1
    74    13    15    1
    75    30    29    1
    76     2     1    1
    77     1    90    1
    78    17    16    2
    79    29    32    1
    80    16    15   am
    81    16    19    1
    82    15    18    1
    83    94    93    1
    84    90    91    1
    85    90    92    1
    86    90    93    1
    87    22    20    1
    88    93    95    1
    89    93    99    1
    90   100    99    1
    91    19    20   ar
    92    19    24   ar
    93    20    21   ar
    94    97    95    1
    95    96    95    1
    96    95    98    1
    97    99   102    1
    98    99   101    1
    99    24    23   ar
   100    26    25    1
   101    21    23   ar
   102    21    25    1
   103    25    27    1
   104    25    28    1
@<TRIPOS>MOLECULE
crystal_redock_e32_er3_1.pdbqt
 102 104 0 0 0
SMALL
GASTEIGER

@<TRIPOS>ATOM
      1 C         -36.4010   15.7430   26.2660 C.3     1  UNL1        0.0890
      2 H         -37.1040   16.2170   26.9530 H       1  UNL1        0.0870
      3 N         -35.0630   15.9380   26.8050 N.am    1  UNL1       -0.3460
      4 C         -34.7550   17.1380   27.6630 C.2     1  UNL1        0.2410
      5 O         -35.5990   17.9360   27.9050 O.2     1  UNL1       -0.2710
      6 H         -34.3580   15.2480   26.5850 H       1  UNL1        0.1630
      7 C         -33.3660   17.3200   28.2170 C.3     1  UNL1        0.0920
      8 H         -33.4300   17.7930   29.1970 H       1  UNL1        0.0880
      9 N         -32.7390   16.0090   28.4070 N.am    1  UNL1       -0.3460
     10 C         -31.8210   15.8010   29.5000 C.2     1  UNL1        0.2400
     11 O         -31.5750   16.6780   30.2350 O.2     1  UNL1       -0.2710
     12 H         -32.9410   15.2430   27.7810 H       1  UNL1        0.1630
     13 C         -31.1550   14.4040   29.6960 C.3     1  UNL1        0.0860
     14 H         -30.5310   14.3560   30.5880 H       1  UNL1        0.0860
     15 N         -32.1970   13.4040   29.8620 N.am    1  UNL1       -0.3430
     16 C         -31.8990   12.1660   30.5870 C.2     1  UNL1        0.2730
     17 O         -30.8190   11.9830   31.0290 O.2     1  UNL1       -0.2660
     18 H         -33.1170   13.5670   29.4790 H       1  UNL1        0.1630
     19 C         -32.9920   11.1010   30.7720 C.ar    1  UNL1        0.1540
     20 C         -34.0480   11.1050   31.7370 C.ar    1  UNL1       -0.0170
     21 C         -34.7700    9.9160   31.4890 C.ar    1  UNL1        0.0770
     22 H         -34.2590   11.8550   32.4990 H       1  UNL1        0.0910
     23 O         -34.1890    9.3090   30.4960 O.2     1  UNL1       -0.2180
     24 N         -33.1490    9.9810   30.0610 N.ar    1  UNL1       -0.1230
     25 C         -36.0020    9.4350   32.2460 C.3     1  UNL1       -0.0290
     26 H         -36.6460    8.8730   31.5710 H       1  UNL1        0.0360
     27 H         -35.6940    8.7950   33.0710 H       1  UNL1        0.0360
     28 H         -36.5470   10.2940   32.6360 H       1  UNL1        0.0360
     29 C         -30.3100   14.0740   28.4920 C.3     1  UNL1       -0.0490
     30 H         -30.6800   13.1600   28.0280 H       1  UNL1        0.0300
     31 H         -30.3640   14.8920   27.7750 H       1  UNL1        0.0300
     32 H         -29.2750   13.9300   28.8030 H       1  UNL1        0.0300
     33 C         -32.5150   18.1580   27.2170 C.3     1  UNL1       -0.0330
     34 H         -31.4830   17.8180   27.2980 H       1  UNL1        0.0420
     35 C         -32.9730   17.9220   25.7440 C.3     1  UNL1       -0.0710
     36 H         -32.2580   18.3830   25.0630 H       1  UNL1        0.0280
     37 H         -33.0250   16.8520   25.5470 H       1  UNL1        0.0280
     38 H         -33.9560   18.3680   25.5940 H       1  UNL1        0.0280
     39 C         -32.5540   19.6760   27.5860 C.3     1  UNL1       -0.0710
     40 H         -32.8610   20.2540   26.7140 H       1  UNL1        0.0280
     41 H         -33.2640   19.8350   28.3980 H       1  UNL1        0.0280
     42 H         -31.5620   19.9980   27.9050 H       1  UNL1        0.0280
     43 C         -36.6600   14.2160   26.1220 C.2     1  UNL1        0.2400
     44 O         -37.3020   13.8090   25.2080 O.2     1  UNL1       -0.2710
     45 N         -36.1010   13.2600   27.1190 N.am    1  UNL1       -0.3550
     46 H         -35.5500   13.5930   27.8970 H       1  UNL1        0.1620
     47 C         -36.3550   11.8110   26.9670 C.3     1  UNL1        0.0130
     48 H         -36.4250   11.5920   25.9020 H       1  UNL1        0.0720
     49 C         -37.6540   11.4560   27.6540 C.3     1  UNL1       -0.0380
     50 H         -38.1220   12.4080   27.9090 H       1  UNL1        0.0360
     51 H         -38.1610   10.7620   26.9840 H       1  UNL1        0.0360
     52 C         -37.4430   10.7030   28.9860 C.3     1  UNL1        0.0180
     53 H         -37.1710    9.6850   28.7090 H       1  UNL1        0.0480
     54 H         -36.7490   11.3150   29.5640 H       1  UNL1        0.0480
     55 C         -38.7290   10.5830   29.8490 C.2     1  UNL1        0.2590
     56 O         -39.3680   11.5490   30.1170 O.2     1  UNL1       -0.2650
     57 O         -39.1310    9.3050   30.3260 O.3     1  UNL1       -0.3170
     58 C         -39.0510    8.2660   29.3470 C.3     1  UNL1        0.0520
     59 H         -39.9740    7.6950   29.4470 H       1  UNL1        0.0820
     60 H         -38.8170    8.7640   28.4060 H       1  UNL1        0.0820
     61 C         -37.8600    7.3440   29.7230 C.ar    1  UNL1       -0.0340
     62 C         -36.7610    7.2450   28.8750 C.ar    1  UNL1       -0.0750
     63 C         -35.6920    6.4170   29.2120 C.ar    1  UNL1       -0.0820
     64 H         -36.7390    7.8150   27.9460 H       1  UNL1        0.0840
     65 C         -35.7250    5.6840   30.4020 C.ar    1  UNL1       -0.0830
     66 H         -34.8320    6.3420   28.5470 H       1  UNL1        0.0830
     67 C         -36.8250    5.7840   31.2430 C.ar    1  UNL1       -0.0820
     68 H         -34.8920    5.0350   30.6740 H       1  UNL1        0.0830
     69 C         -37.8950    6.6120   30.9110 C.ar    1  UNL1       -0.0750
     70 H         -36.8480    5.2100   32.1700 H       1  UNL1        0.0830
     71 H         -38.7550    6.6860   31.5780 H       1  UNL1        0.0840
     72 C         -35.2120   11.0170   27.5980 C.3     1  UNL1       -0.0390
     73 H         -34.6130   11.7510   28.1380 H       1  UNL1        0.0360
     74 H         -35.6900   10.2000   28.1380 H       1  UNL1        0.0360
     75 C         -34.2640   10.3580   26.4860 C.3     1  UNL1       -0.0010
     76 C         -34.0610    8.7570   26.8020 C.3     1  UNL1       -0.0350
     77 C         -32.7360    8.4770   26.7970 C.3     1  UNL1        0.0850
     78 H         -34.3650    8.5360   27.8240 H       1  UNL1        0.0360
     79 H         -34.4500    8.1610   25.9760 H       1  UNL1        0.0360
     80 N         -32.0050    9.7970   26.8330 N.4     1  UNL1       -0.0490
     81 H         -32.5490    7.9410   27.7280 H       1  UNL1        0.0750
     82 H         -32.5440    7.9910   25.8410 H       1  UNL1        0.0750
     83 C         -33.1030   10.9230   26.4680 C.3     1  UNL1        0.1930
     84 H         -31.7080    9.9340   27.7890 H       1  UNL1        0.2800
     85 H         -31.3190    9.7640   26.0910 H       1  UNL1        0.2800
     86 H         -33.1200   11.3800   25.4790 H       1  UNL1        0.1290
     87 H         -34.5640   10.6300   25.4740 H       1  UNL1        0.0460
     88 O         -33.0180   12.0110   27.3900 O.3     1  UNL1       -0.3690
     89 H         -32.1540   12.4230   27.3200 H       1  UNL1        0.2120
     90 C         -36.4890   16.4080   24.9020 C.3     1  UNL1       -0.0350
     91 H         -35.4980   16.8220   24.7190 H       1  UNL1        0.0370
     92 H         -36.8920   15.6450   24.2350 H       1  UNL1        0.0370
     93 C         -37.4850   17.6090   24.8520 C.3     1  UNL1       -0.0590
     94 H         -38.0420   17.5390   23.9190 H       1  UNL1        0.0380
     95 C         -38.5150   17.5690   26.0260 C.3     1  UNL1       -0.0730
     96 H         -38.9000   16.5560   26.1380 H       1  UNL1        0.0280
     97 H         -38.0250   17.8750   26.9510 H       1  UNL1        0.0280
     98 H         -39.3390   18.2490   25.8100 H       1  UNL1        0.0280
     99 C         -36.7330   18.9430   24.8330 C.3     1  UNL1       -0.0730
    100 H         -35.9000   18.8800   24.1320 H       1  UNL1        0.0280
    101 H         -37.4100   19.7380   24.5220 H       1  UNL1        0.0280
    102 H         -36.3530   19.1600   25.8310 H       1  UNL1        0.0280
@<TRIPOS>BOND
     1    94    93    1
     2   100    99    1
     3    92    90    1
     4   101    99    1
     5    91    90    1
     6    99    93    1
     7    99   102    1
     8    93    90    1
     9    93    95    1
    10    90     1    1
    11    36    35    1
    12    44    43    2
    13    87    75    1
    14    86    83    1
    15    37    35    1
    16    38    35    1
    17    35    33    1
    18    98    95    1
    19    82    77    1
    20    48    47    1
    21    79    76    1
    22    95    96    1
    23    95    97    1
    24    85    80    1
    25    43     1    1
    26    43    45   am
    27     1     3    1
    28     1     2    1
    29    83    75    1
    30    83    80    1
    31    83    88    1
    32    75    76    1
    33    75    72    1
    34     6     3    1
    35    40    39    1
    36    77    76    1
    37    77    80    1
    38    77    81    1
    39    76    78    1
    40     3     4   am
    41    80    84    1
    42    47    45    1
    43    47    72    1
    44    47    49    1
    45    51    49    1
    46    45    46    1
    47    33    34    1
    48    33    39    1
    49    33     7    1
    50    89    88    1
    51    39    42    1
    52    39    41    1
    53    72    74    1
    54    72    73    1
    55    49    50    1
    56    49    52    1
    57     4     5    2
    58     4     7    1
    59    31    29    1
    60    12     9    1
    61    64    62    1
    62    30    29    1
    63     7     9    1
    64     7     8    1
    65    60    58    1
    66     9    10   am
    67    29    32    1
    68    29    13    1
    69    66    63    1
    70    53    52    1
    71    62    63   ar
    72    62    61   ar
    73    52    54    1
    74    52    55    1
    75    63    65   ar
    76    58    59    1
    77    58    61    1
    78    58    57    1
    79    18    15    1
    80    10    13    1
    81    10    11    2
    82    13    15    1
    83    13    14    1
    84    61    69   ar
    85    55    56    2
    86    55    57    1
    87    15    16   am
    88    24    23   ar
    89    24    19   ar
    90    65    68    1
    91    65    67   ar
    92    23    21   ar
    93    16    19    1
    94    16    17    2
    95    19    20   ar
    96    69    67   ar
    97    69    71    1
    98    67    70    1
    99    21    20   ar
   100    21    25    1
   101    26    25    1
   102    20    22    1
   103    25    28    1
   104    25    27    1
@<TRIPOS>MOLECULE
crystal_redock_e32_er3_1.pdbqt
 102 104 0 0 0
SMALL
GASTEIGER

@<TRIPOS>ATOM
      1 C         -34.8420    8.4210   31.2480 C.3     1  UNL1        0.0890
      2 H         -34.4090    8.4790   32.2470 H       1  UNL1        0.0870
      3 N         -33.9720    9.1660   30.3500 N.am    1  UNL1       -0.3460
      4 C         -33.4620   10.5300   30.7420 C.2     1  UNL1        0.2410
      5 O         -33.7680   11.0090   31.7840 O.2     1  UNL1       -0.2710
      6 H         -33.7260    8.7420   29.4670 H       1  UNL1        0.1630
      7 C         -32.5580   11.2850   29.8020 C.3     1  UNL1        0.0920
      8 H         -31.9070   10.5790   29.2880 H       1  UNL1        0.0880
      9 N         -33.3660   11.9550   28.7790 N.am    1  UNL1       -0.3460
     10 C         -33.5600   11.3320   27.4930 C.2     1  UNL1        0.2400
     11 O         -33.0730   10.2930   27.2640 O.2     1  UNL1       -0.2710
     12 H         -33.7920   12.8520   28.9610 H       1  UNL1        0.1630
     13 C         -34.4190   12.0510   26.4060 C.3     1  UNL1        0.0860
     14 H         -35.0760   12.8130   26.8240 H       1  UNL1        0.0860
     15 N         -33.5310   12.7320   25.4780 N.am    1  UNL1       -0.3430
     16 C         -33.0010   14.0530   25.8240 C.2     1  UNL1        0.2730
     17 O         -33.2970   14.5600   26.8500 O.2     1  UNL1       -0.2660
     18 H         -33.2850   12.2920   24.6030 H       1  UNL1        0.1630
     19 C         -32.0600   14.7830   24.8540 C.ar    1  UNL1        0.1540
     20 C         -30.9380   14.2320   24.1580 C.ar    1  UNL1       -0.0170
     21 C         -30.4160   15.3050   23.4020 C.ar    1  UNL1        0.0770
     22 H         -30.5600   13.2100   24.1950 H       1  UNL1        0.0910
     23 O         -31.1590   16.3450   23.6420 O.2     1  UNL1       -0.2180
     24 N         -32.1250   16.0660   24.4860 N.ar    1  UNL1       -0.1230
     25 C         -29.2070   15.2520   22.4770 C.3     1  UNL1       -0.0290
     26 H         -29.3220   14.4270   21.7740 H       1  UNL1        0.0360
     27 H         -29.1300   16.1900   21.9260 H       1  UNL1        0.0360
     28 H         -28.3030   15.1030   23.0670 H       1  UNL1        0.0360
     29 C         -35.2560   11.0360   25.6700 C.3     1  UNL1       -0.0490
     30 H         -36.1730   11.5080   25.3190 H       1  UNL1        0.0300
     31 H         -34.6950   10.6540   24.8170 H       1  UNL1        0.0300
     32 H         -35.5040   10.2140   26.3410 H       1  UNL1        0.0300
     33 C         -31.7520   12.3500   30.6020 C.3     1  UNL1       -0.0330
     34 H         -32.2990   12.5520   31.5230 H       1  UNL1        0.0420
     35 C         -30.3420   11.8140   31.0020 C.3     1  UNL1       -0.0710
     36 H         -29.7910   11.5360   30.1030 H       1  UNL1        0.0280
     37 H         -29.7970   12.5900   31.5370 H       1  UNL1        0.0280
     38 H         -30.4550   10.9400   31.6430 H       1  UNL1        0.0280
     39 C         -31.6440   13.6870   29.8010 C.3     1  UNL1       -0.0710
     40 H         -30.6000   13.8750   29.5470 H       1  UNL1        0.0280
     41 H         -32.2330   13.6120   28.8870 H       1  UNL1        0.0280
     42 H         -32.0240   14.5070   30.4100 H       1  UNL1        0.0280
     43 C         -34.9440    6.9560   30.7360 C.2     1  UNL1        0.2400
     44 O         -35.4260    6.1200   31.4300 O.2     1  UNL1       -0.2710
     45 N         -34.4490    6.5970   29.3770 N.am    1  UNL1       -0.3550
     46 H         -34.0420    7.2990   28.7760 H       1  UNL1        0.1620
     47 C         -34.5550    5.1990   28.9040 C.3     1  UNL1        0.0130
     48 H         -34.8640    4.5820   29.7480 H       1  UNL1        0.0720
     49 C         -33.2070    4.7410   28.3950 C.3     1  UNL1       -0.0380
     50 H         -32.4750    5.3990   28.8640 H       1  UNL1        0.0360
     51 H         -33.1720    3.6670   28.5800 H       1  UNL1        0.0360
     52 C         -33.0470    4.9260   26.8700 C.3     1  UNL1        0.0180
     53 H         -32.4710    4.0680   26.5270 H       1  UNL1        0.0480
     54 H         -34.0530    5.0960   26.4870 H       1  UNL1        0.0480
     55 C         -32.2210    6.1810   26.4750 C.2     1  UNL1        0.2590
     56 O         -32.1690    7.1220   27.2000 O.2     1  UNL1       -0.2650
     57 O         -31.5340    6.2000   25.2290 O.3     1  UNL1       -0.3170
     58 C         -32.3100    6.7200   24.1460 C.3     1  UNL1        0.0520
     59 H         -32.2480    5.9730   23.3540 H       1  UNL1        0.0820
     60 H         -33.2770    6.9810   24.5730 H       1  UNL1        0.0820
     61 C         -31.6260    8.0210   23.6480 C.ar    1  UNL1       -0.0340
     62 C         -32.0580    9.2580   24.1140 C.ar    1  UNL1       -0.0750
     63 C         -31.4440   10.4270   23.6670 C.ar    1  UNL1       -0.0820
     64 H         -32.8790    9.3120   24.8300 H       1  UNL1        0.0840
     65 C         -30.3950   10.3550   22.7470 C.ar    1  UNL1       -0.0830
     66 H         -31.7840   11.3950   24.0360 H       1  UNL1        0.0830
     67 C         -29.9690    9.1190   22.2820 C.ar    1  UNL1       -0.0820
     68 H         -29.9080   11.2640   22.3930 H       1  UNL1        0.0830
     69 C         -30.5780    7.9480   22.7280 C.ar    1  UNL1       -0.0750
     70 H         -29.1510    9.0660   21.5620 H       1  UNL1        0.0830
     71 H         -30.2370    6.9800   22.3580 H       1  UNL1        0.0840
     72 C         -35.5820    5.1110   27.7770 C.3     1  UNL1       -0.0390
     73 H         -35.1310    5.6320   26.9320 H       1  UNL1        0.0360
     74 H         -35.8320    4.0540   27.6950 H       1  UNL1        0.0360
     75 C         -36.9330    5.8890   28.1460 C.3     1  UNL1       -0.0010
     76 C         -37.8380    4.9830   29.1780 C.3     1  UNL1       -0.0350
     77 C         -39.0960    4.8870   28.6870 C.3     1  UNL1        0.0850
     78 H         -37.4850    3.9520   29.1770 H       1  UNL1        0.0360
     79 H         -37.9720    5.5130   30.1210 H       1  UNL1        0.0360
     80 N         -39.0490    5.3670   27.2560 N.4     1  UNL1       -0.0490
     81 H         -39.3330    3.8230   28.6970 H       1  UNL1        0.0750
     82 H         -39.6920    5.5840   29.2750 H       1  UNL1        0.0750
     83 C         -37.6360    6.1300   27.0900 C.3     1  UNL1        0.1930
     84 H         -39.0380    4.5400   26.6770 H       1  UNL1        0.2800
     85 H         -39.7940    6.0430   27.1570 H       1  UNL1        0.2800
     86 H         -37.5950    7.2200   27.0680 H       1  UNL1        0.1290
     87 H         -36.7490    6.9260   28.4270 H       1  UNL1        0.0460
     88 O         -36.9810    5.6990   25.8960 O.3     1  UNL1       -0.3690
     89 H         -37.6380    5.4870   25.2290 H       1  UNL1        0.2120
     90 C         -36.2210    9.0610   31.2470 C.3     1  UNL1       -0.0350
     91 H         -36.8110    8.4760   31.9520 H       1  UNL1        0.0370
     92 H         -36.0480   10.1210   31.4280 H       1  UNL1        0.0370
     93 C         -36.9560    8.9630   29.8720 C.3     1  UNL1       -0.0590
     94 H         -36.4550    8.1950   29.2830 H       1  UNL1        0.0380
     95 C         -38.4520    8.5400   30.0320 C.3     1  UNL1       -0.0730
     96 H         -38.7590    8.6750   31.0680 H       1  UNL1        0.0280
     97 H         -39.0750    9.1570   29.3850 H       1  UNL1        0.0280
     98 H         -38.5650    7.4930   29.7530 H       1  UNL1        0.0280
     99 C         -36.8420   10.2770   29.0960 C.3     1  UNL1       -0.0730
    100 H         -37.8220   10.5590   28.7120 H       1  UNL1        0.0280
    101 H         -36.4730   11.0600   29.7590 H       1  UNL1        0.0280
    102 H         -36.1480   10.1500   28.2650 H       1  UNL1        0.0280
@<TRIPOS>BOND
     1    70    67    1
     2    26    25    1
     3    27    25    1
     4    67    69   ar
     5    67    65   ar
     6    71    69    1
     7    68    65    1
     8    25    28    1
     9    25    21    1
    10    69    61   ar
    11    65    63   ar
    12    59    58    1
    13    21    23   ar
    14    21    20   ar
    15    23    24   ar
    16    61    62   ar
    17    61    58    1
    18    63    66    1
    19    63    62   ar
    20    62    64    1
    21    58    60    1
    22    58    57    1
    23    20    22    1
    24    20    19   ar
    25    24    19   ar
    26    18    15    1
    27    31    29    1
    28    19    16    1
    29    57    55    1
    30    89    88    1
    31    30    29    1
    32    15    16   am
    33    15    13    1
    34    29    32    1
    35    29    13    1
    36    16    17    2
    37    88    83    1
    38    13    14    1
    39    13    10    1
    40    55    52    1
    41    55    56    2
    42    54    52    1
    43    53    52    1
    44    84    80    1
    45    52    49    1
    46    73    72    1
    47    86    83    1
    48    83    80    1
    49    83    75    1
    50    85    80    1
    51    80    77    1
    52    11    10    2
    53    10     9   am
    54    74    72    1
    55    72    75    1
    56    72    47    1
    57    75    87    1
    58    75    76    1
    59   102    99    1
    60    49    51    1
    61    49    50    1
    62    49    47    1
    63    77    81    1
    64    77    76    1
    65    77    82    1
    66   100    99    1
    67    46    45    1
    68     9    12    1
    69     9     7    1
    70    41    39    1
    71    47    45    1
    72    47    48    1
    73    99   101    1
    74    99    93    1
    75    78    76    1
    76    76    79    1
    77    94    93    1
    78     8     7    1
    79    45    43   am
    80    97    95    1
    81     6     3    1
    82    40    39    1
    83    98    95    1
    84    39    42    1
    85    39    33    1
    86     7    33    1
    87     7     4    1
    88    93    95    1
    89    93    90    1
    90    95    96    1
    91    36    35    1
    92     3     4   am
    93     3     1    1
    94    33    35    1
    95    33    34    1
    96    43     1    1
    97    43    44    2
    98     4     5    2
    99    35    37    1
   100    35    38    1
   101    90     1    1
   102    90    92    1
   103    90    91    1
   104     1     2    1
