@<TRIPOS>MOLECULE
crystal_redock_e8_er3_1.pdbqt
 102 104 0 0 0
SMALL
GASTEIGER

@<TRIPOS>ATOM
      1 C1        -32.9560   10.2740   26.3790 C.3     1  UNL1        0.0890
      2 H1        -33.7580   10.6110   25.7220 H       1  UNL1        0.0870
      3 N1        -32.2610    9.1890   25.7020 N.am    1  UNL1       -0.3460
      4 C2        -33.0230    8.2250   24.8280 C.2     1  UNL1        0.2410
      5 O1        -34.1960    8.3410   24.6870 O.2     1  UNL1       -0.2710
      6 H2        -31.2640    9.1060   25.8370 H       1  UNL1        0.1630
      7 C3        -32.2880    7.1110   24.1310 C.3     1  UNL1        0.0920
      8 H3        -32.8450    6.8140   23.2430 H       1  UNL1        0.0880
      9 N2        -30.9800    7.5960   23.6790 N.am    1  UNL1       -0.3460
     10 C4        -30.8030    8.0250   22.3140 C.2     1  UNL1        0.2400
     11 O2        -31.7020    7.9850   21.5650 O.2     1  UNL1       -0.2710
     12 H4        -30.1950    7.6340   24.3130 H       1  UNL1        0.1630
     13 C5        -29.4080    8.5370   21.8380 C.3     1  UNL1        0.0860
     14 H5        -29.1160    8.1280   20.8710 H       1  UNL1        0.0860
     15 N3        -29.4660    9.9810   21.6780 N.am    1  UNL1       -0.3430
     16 C6        -29.9210   10.8120   22.7950 C.2     1  UNL1        0.2730
     17 O3        -30.2410   10.3100   23.8160 O.2     1  UNL1       -0.2660
     18 H6        -29.1930   10.4020   20.8020 H       1  UNL1        0.1630
     19 C7        -29.9850   12.3400   22.6410 C.ar    1  UNL1        0.1540
     20 C8        -30.7250   13.2600   23.4490 C.ar    1  UNL1       -0.0170
     21 C9        -30.4490   14.5310   22.8990 C.ar    1  UNL1        0.0770
     22 H7        -31.3650   13.0390   24.3040 H       1  UNL1        0.0910
     23 O4        -29.6420   14.3510   21.8940 O.2     1  UNL1       -0.2180
     24 N4        -29.3570   13.0810   21.7240 N.ar    1  UNL1       -0.1230
     25 C10       -30.9930   15.8650   23.3920 C.3     1  UNL1       -0.0290
     26 H8        -30.2830   16.3140   24.0850 H       1  UNL1        0.0360
     27 H9        -31.1440   16.5320   22.5430 H       1  UNL1        0.0360
     28 H10       -31.9440   15.7040   23.9000 H       1  UNL1        0.0360
     29 C11       -28.3610    8.1710   22.8580 C.3     1  UNL1       -0.0490
     30 H11       -28.1820    9.0220   23.5170 H       1  UNL1        0.0300
     31 H12       -28.7080    7.3230   23.4470 H       1  UNL1        0.0300
     32 H13       -27.4340    7.9060   22.3490 H       1  UNL1        0.0300
     33 C12       -32.0850    5.9250   25.1190 C.3     1  UNL1       -0.0330
     34 H14       -31.0910    5.5150   24.9410 H       1  UNL1        0.0420
     35 C13       -32.1340    6.4070   26.6030 C.3     1  UNL1       -0.0710
     36 H15       -31.2360    6.9820   26.8280 H       1  UNL1        0.0280
     37 H16       -33.0130    7.0330   26.7520 H       1  UNL1        0.0280
     38 H17       -32.1870    5.5420   27.2640 H       1  UNL1        0.0280
     39 C14       -33.1290    4.7930   24.8560 C.3     1  UNL1       -0.0710
     40 H18       -33.1390    4.1040   25.7010 H       1  UNL1        0.0280
     41 H19       -34.1190    5.2330   24.7340 H       1  UNL1        0.0280
     42 H20       -32.8580    4.2530   23.9490 H       1  UNL1        0.0280
     43 C15       -31.9320   11.4050   26.6810 C.2     1  UNL1        0.2400
     44 O5        -30.7830   11.2490   26.4180 O.2     1  UNL1       -0.2710
     45 N5        -32.3840   12.6870   27.2920 N.am    1  UNL1       -0.3550
     46 H21       -33.3570   12.8340   27.5160 H       1  UNL1        0.1620
     47 C16       -31.3980   13.7540   27.5730 C.3     1  UNL1        0.0130
     48 H22       -30.5270   13.5790   26.9410 H       1  UNL1        0.0720
     49 C17       -31.0000   13.6960   29.0300 C.3     1  UNL1       -0.0380
     50 H23       -30.1510   13.0140   29.0770 H       1  UNL1        0.0360
     51 H24       -30.8850   14.7330   29.3450 H       1  UNL1        0.0360
     52 C18       -32.0990   13.0860   29.9280 C.3     1  UNL1        0.0180
     53 H25       -32.3000   13.8320   30.6950 H       1  UNL1        0.0480
     54 H26       -32.8930   12.7730   29.2500 H       1  UNL1        0.0480
     55 C19       -31.6510   11.8050   30.6840 C.2     1  UNL1        0.2590
     56 O6        -30.5260   11.6810   31.0470 O.2     1  UNL1       -0.2650
     57 O7        -32.5980   10.7720   30.9280 O.3     1  UNL1       -0.3170
     58 C20       -33.8460   11.2380   31.4490 C.3     1  UNL1        0.0520
     59 H27       -33.6530   11.4940   32.4910 H       1  UNL1        0.0820
     60 H28       -34.1880   12.0050   30.7540 H       1  UNL1        0.0820
     61 C21       -34.8520   10.0570   31.4110 C.ar    1  UNL1       -0.0340
     62 C22       -34.3910    8.7540   31.2510 C.ar    1  UNL1       -0.0750
     63 C23       -35.2950    7.6940   31.2170 C.ar    1  UNL1       -0.0820
     64 H29       -33.3220    8.5640   31.1530 H       1  UNL1        0.0840
     65 C24       -36.6650    7.9400   31.3400 C.ar    1  UNL1       -0.0830
     66 H30       -34.9310    6.6730   31.0930 H       1  UNL1        0.0830
     67 C25       -37.1210    9.2420   31.4950 C.ar    1  UNL1       -0.0820
     68 H31       -37.3790    7.1160   31.3140 H       1  UNL1        0.0830
     69 C26       -36.2210   10.3050   31.5320 C.ar    1  UNL1       -0.0750
     70 H32       -38.1900    9.4310   31.5880 H       1  UNL1        0.0830
     71 H33       -36.5860   11.3250   31.6560 H       1  UNL1        0.0840
     72 C27       -32.0110   15.1180   27.2650 C.3     1  UNL1       -0.0390
     73 H34       -31.7880   15.7390   28.1340 H       1  UNL1        0.0360
     74 H35       -31.6260   15.3950   26.2840 H       1  UNL1        0.0360
     75 C28       -33.6060   15.0370   27.1410 C.3     1  UNL1       -0.0010
     76 C29       -34.0720   15.4600   25.6220 C.3     1  UNL1       -0.0350
     77 C30       -35.0340   16.4100   25.7090 C.3     1  UNL1        0.0850
     78 H36       -33.2560   15.9690   25.1090 H       1  UNL1        0.0360
     79 H37       -34.5820   14.6250   25.1400 H       1  UNL1        0.0360
     80 N6        -35.0340   16.9080   27.1340 N.4     1  UNL1       -0.0490
     81 H38       -34.7070   17.2160   25.0510 H       1  UNL1        0.0750
     82 H39       -35.9720   15.8930   25.5130 H       1  UNL1        0.0750
     83 C31       -34.1820   15.8300   27.9820 C.3     1  UNL1        0.1930
     84 H40       -34.5320   17.7840   27.1320 H       1  UNL1        0.2800
     85 H41       -35.9940   16.8770   27.4470 H       1  UNL1        0.2800
     86 H42       -34.6860   15.1070   28.6230 H       1  UNL1        0.1290
     87 H43       -34.0040   14.1030   27.5390 H       1  UNL1        0.0460
     88 O8        -33.2410   16.4980   28.8240 O.3     1  UNL1       -0.3690
     89 H44       -33.3410   16.1860   29.7260 H       1  UNL1        0.2120
     90 C32       -33.5410    9.7530   27.6810 C.3     1  UNL1       -0.0350
     91 H45       -33.3850    8.6750   27.6570 H       1  UNL1        0.0370
     92 H46       -33.0800   10.3530   28.4660 H       1  UNL1        0.0370
     93 C33       -35.0830    9.9710   27.8070 C.3     1  UNL1       -0.0590
     94 H47       -35.2800   10.3670   28.8030 H       1  UNL1        0.0380
     95 C34       -35.6180   11.0070   26.7670 C.3     1  UNL1       -0.0730
     96 H48       -35.1190   11.9630   26.9170 H       1  UNL1        0.0280
     97 H49       -35.4170   10.6460   25.7590 H       1  UNL1        0.0280
     98 H50       -36.6920   11.1330   26.9010 H       1  UNL1        0.0280
     99 C35       -35.8340    8.6430   27.6890 C.3     1  UNL1       -0.0730
    100 H51       -36.9080    8.8310   27.6920 H       1  UNL1        0.0280
    101 H52       -35.5550    8.1480   26.7590 H       1  UNL1        0.0280
    102 H53       -35.5750    8.0020   28.5320 H       1  UNL1        0.0280
@<TRIPOS>BOND
     1    18    15    1
     2    14    13    1
     3    11    10    2
     4    15    13    1
     5    15    16   am
     6    24    23   ar
     7    24    19   ar
     8    13    10    1
     9    13    29    1
    10    23    21   ar
    11    10     9   am
    12    32    29    1
    13    27    25    1
    14    19    16    1
    15    19    20   ar
    16    16    17    2
    17    29    31    1
    18    29    30    1
    19    21    25    1
    20    21    20   ar
    21     8     7    1
    22    25    28    1
    23    25    26    1
    24    20    22    1
    25     9     7    1
    26     9    12    1
    27    42    39    1
    28     7     4    1
    29     7    33    1
    30     5     4    2
    31    41    39    1
    32     4     3   am
    33    39    33    1
    34    39    40    1
    35    34    33    1
    36    81    77    1
    37    78    76    1
    38    33    35    1
    39    79    76    1
    40    82    77    1
    41    76    77    1
    42    76    75    1
    43     3     6    1
    44     3     1    1
    45    77    80    1
    46     2     1    1
    47    97    95    1
    48    74    72    1
    49     1    43    1
    50     1    90    1
    51    44    43    2
    52    35    37    1
    53    35    36    1
    54    35    38    1
    55    43    45   am
    56   101    99    1
    57    95    98    1
    58    95    96    1
    59    95    93    1
    60    48    47    1
    61    84    80    1
    62    80    85    1
    63    80    83    1
    64    75    72    1
    65    75    87    1
    66    75    83    1
    67    72    47    1
    68    72    73    1
    69    45    46    1
    70    45    47    1
    71    47    49    1
    72    91    90    1
    73    90    93    1
    74    90    92    1
    75    99   100    1
    76    99    93    1
    77    99   102    1
    78    93    94    1
    79    83    86    1
    80    83    88    1
    81    88    89    1
    82    49    50    1
    83    49    51    1
    84    49    52    1
    85    54    52    1
    86    52    55    1
    87    52    53    1
    88    55    57    1
    89    55    56    2
    90    60    58    1
    91    57    58    1
    92    66    63    1
    93    64    62    1
    94    63    62   ar
    95    63    65   ar
    96    62    61   ar
    97    68    65    1
    98    65    67   ar
    99    61    58    1
   100    61    69   ar
   101    58    59    1
   102    67    69   ar
   103    67    70    1
   104    69    71    1
@<TRIPOS>MOLECULE
crystal_redock_e8_er3_1.pdbqt
 102 104 0 0 0
SMALL
GASTEIGER

@<TRIPOS>ATOM
      1 C         -37.6080   13.8880   25.1350 C.3     1  UNL1        0.0890
      2 H         -38.6220   13.9540   25.5290 H       1  UNL1        0.0870
      3 N         -37.0360   15.2260   25.1690 N.am    1  UNL1       -0.3460
      4 C         -37.4470   16.2020   26.2420 C.2     1  UNL1        0.2410
      5 O         -38.2420   15.8900   27.0660 O.2     1  UNL1       -0.2710
      6 H         -36.3630   15.4730   24.4570 H       1  UNL1        0.1630
      7 C         -36.8410   17.5810   26.2650 C.3     1  UNL1        0.0920
      8 H         -37.2650   18.1450   27.0950 H       1  UNL1        0.0880
      9 N         -35.3980   17.4770   26.5040 N.am    1  UNL1       -0.3460
     10 C         -34.8220   18.0500   27.6960 C.2     1  UNL1        0.2400
     11 O         -35.5050   18.6000   28.4720 O.2     1  UNL1       -0.2710
     12 H         -34.7960   17.0080   25.8430 H       1  UNL1        0.1630
     13 C         -33.2860   17.9390   27.9430 C.3     1  UNL1        0.0860
     14 H         -32.9720   18.4170   28.8710 H       1  UNL1        0.0860
     15 N         -32.9270   16.5350   28.0570 N.am    1  UNL1       -0.3430
     16 C         -32.1040   16.0900   29.1830 C.2     1  UNL1        0.2730
     17 O         -31.7340   16.8690   29.9910 O.2     1  UNL1       -0.2660
     18 H         -33.2450   15.8770   27.3600 H       1  UNL1        0.1630
     19 C         -31.7180   14.6080   29.3160 C.ar    1  UNL1        0.1540
     20 C         -32.5120   13.5550   29.8710 C.ar    1  UNL1       -0.0170
     21 C         -31.7100   12.3970   29.7590 C.ar    1  UNL1        0.0770
     22 H         -33.5160   13.6200   30.2900 H       1  UNL1        0.0910
     23 O         -30.5890   12.7550   29.2020 O.2     1  UNL1       -0.2180
     24 N         -30.5710   14.0410   28.9350 N.ar    1  UNL1       -0.1230
     25 C         -32.0870   10.9910   30.2050 C.3     1  UNL1       -0.0290
     26 H         -33.1700   10.9220   30.3100 H       1  UNL1        0.0360
     27 H         -31.7480   10.2710   29.4620 H       1  UNL1        0.0360
     28 H         -31.6150   10.7750   31.1630 H       1  UNL1        0.0360
     29 C         -32.5420   18.5710   26.7950 C.3     1  UNL1       -0.0490
     30 H         -32.1100   19.5190   27.1190 H       1  UNL1        0.0300
     31 H         -31.7460   17.9040   26.4660 H       1  UNL1        0.0300
     32 H         -33.2310   18.7500   25.9690 H       1  UNL1        0.0300
     33 C         -37.0880   18.2790   24.8960 C.3     1  UNL1       -0.0330
     34 H         -36.5980   17.6800   24.1280 H       1  UNL1        0.0420
     35 C         -38.6090   18.3320   24.5510 C.3     1  UNL1       -0.0710
     36 H         -39.0310   19.2700   24.9120 H       1  UNL1        0.0280
     37 H         -38.7390   18.2670   23.4710 H       1  UNL1        0.0280
     38 H         -39.1190   17.4960   25.0290 H       1  UNL1        0.0280
     39 C         -36.4520   19.7070   24.8730 C.3     1  UNL1       -0.0710
     40 H         -36.3200   20.0290   23.8400 H       1  UNL1        0.0280
     41 H         -37.1090   20.4060   25.3910 H       1  UNL1        0.0280
     42 H         -35.4840   19.6810   25.3730 H       1  UNL1        0.0280
     43 C         -36.7090   12.9430   25.9820 C.2     1  UNL1        0.2400
     44 O         -36.9190   12.8120   27.1450 O.2     1  UNL1       -0.2710
     45 N         -35.5890   12.1940   25.3430 N.am    1  UNL1       -0.3550
     46 H         -35.4040   12.2940   24.3560 H       1  UNL1        0.1620
     47 C         -34.7440   11.2990   26.1630 C.3     1  UNL1        0.0130
     48 H         -35.3790   10.8400   26.9200 H       1  UNL1        0.0720
     49 C         -33.6530   12.1100   26.8250 C.3     1  UNL1       -0.0380
     50 H         -34.1660   12.8860   27.3920 H       1  UNL1        0.0360
     51 H         -33.0200   11.3860   27.3390 H       1  UNL1        0.0360
     52 C         -32.7470   12.8380   25.8080 C.3     1  UNL1        0.0180
     53 H         -31.7280   12.6970   26.1670 H       1  UNL1        0.0480
     54 H         -33.0370   12.4570   24.8290 H       1  UNL1        0.0480
     55 C         -32.9730   14.3740   25.7560 C.2     1  UNL1        0.2590
     56 O         -34.0670   14.8260   25.8570 O.2     1  UNL1       -0.2650
     57 O         -31.8570   15.2370   25.5720 O.3     1  UNL1       -0.3170
     58 C         -30.6770   14.5720   25.1100 C.3     1  UNL1        0.0520
     59 H         -29.8450   15.0680   25.6100 H       1  UNL1        0.0820
     60 H         -30.8550   13.5100   25.2720 H       1  UNL1        0.0820
     61 C         -30.5530   14.8220   23.5840 C.ar    1  UNL1       -0.0340
     62 C         -29.8750   13.9100   22.7820 C.ar    1  UNL1       -0.0750
     63 C         -29.7630   14.1350   21.4100 C.ar    1  UNL1       -0.0820
     64 H         -29.4300   13.0200   23.2270 H       1  UNL1        0.0840
     65 C         -30.3310   15.2780   20.8420 C.ar    1  UNL1       -0.0830
     66 H         -29.2320   13.4170   20.7840 H       1  UNL1        0.0830
     67 C         -31.0040   16.1870   21.6470 C.ar    1  UNL1       -0.0820
     68 H         -30.2490   15.4610   19.7700 H       1  UNL1        0.0830
     69 C         -31.1200   15.9660   23.0170 C.ar    1  UNL1       -0.0750
     70 H         -31.4440   17.0790   21.2000 H       1  UNL1        0.0830
     71 H         -31.6510   16.6830   23.6430 H       1  UNL1        0.0840
     72 C         -34.1160   10.2260   25.2750 C.3     1  UNL1       -0.0390
     73 H         -34.7630   10.1580   24.4000 H       1  UNL1        0.0360
     74 H         -33.0730   10.5200   25.1590 H       1  UNL1        0.0360
     75 C         -34.1270    8.7900   25.9840 C.3     1  UNL1       -0.0010
     76 C         -34.9330    8.8770   27.4140 C.3     1  UNL1       -0.0350
     77 C         -34.1550    8.3450   28.3870 C.3     1  UNL1        0.0850
     78 H         -35.0450    9.9180   27.7170 H       1  UNL1        0.0360
     79 H         -35.8020    8.2190   27.3940 H       1  UNL1        0.0360
     80 N         -32.7660    8.2020   27.8130 N.4     1  UNL1       -0.0490
     81 H         -34.1360    9.0890   29.1840 H       1  UNL1        0.0750
     82 H         -34.5640    7.3540   28.5770 H       1  UNL1        0.0750
     83 C         -32.9260    8.3740   26.2160 C.3     1  UNL1        0.1930
     84 H         -32.2290    8.9800   28.1680 H       1  UNL1        0.2800
     85 H         -32.4730    7.2550   28.0070 H       1  UNL1        0.2800
     86 H         -32.8870    7.5050   25.5590 H       1  UNL1        0.1290
     87 H         -34.4170    7.9930   25.2990 H       1  UNL1        0.0460
     88 O         -31.9370    9.2760   25.7150 O.3     1  UNL1       -0.3690
     89 H         -31.3960    9.5930   26.4420 H       1  UNL1        0.2120
     90 C         -37.6460   13.4010   23.6950 C.3     1  UNL1       -0.0350
     91 H         -36.6040   13.2610   23.4100 H       1  UNL1        0.0370
     92 H         -38.3300   12.5520   23.6950 H       1  UNL1        0.0370
     93 C         -38.2390   14.4450   22.6960 C.3     1  UNL1       -0.0590
     94 H         -37.8160   15.4180   22.9450 H       1  UNL1        0.0380
     95 C         -37.8590   14.1250   21.2150 C.3     1  UNL1       -0.0730
     96 H         -38.1590   14.9550   20.5750 H       1  UNL1        0.0280
     97 H         -36.7820   13.9800   21.1390 H       1  UNL1        0.0280
     98 H         -38.3710   13.2170   20.8960 H       1  UNL1        0.0280
     99 C         -39.7570   14.5550   22.8570 C.3     1  UNL1       -0.0730
    100 H         -40.0730   13.9810   23.7290 H       1  UNL1        0.0280
    101 H         -40.0340   15.6010   22.9910 H       1  UNL1        0.0280
    102 H         -40.2470   14.1620   21.9660 H       1  UNL1        0.0280
@<TRIPOS>BOND
     1    68    65    1
     2    96    95    1
     3    66    63    1
     4    65    63   ar
     5    65    67   ar
     6    98    95    1
     7    97    95    1
     8    70    67    1
     9    95    93    1
    10    63    62   ar
    11    67    69   ar
    12   102    99    1
    13    93    99    1
    14    93    94    1
    15    93    90    1
    16    62    64    1
    17    62    61   ar
    18    99   101    1
    19    99   100    1
    20    69    61   ar
    21    69    71    1
    22    91    90    1
    23    37    35    1
    24    61    58    1
    25    90    92    1
    26    90     1    1
    27    40    39    1
    28    34    33    1
    29    46    45    1
    30    73    72    1
    31     6     3    1
    32    35    33    1
    33    35    36    1
    34    35    38    1
    35    54    52    1
    36    39    33    1
    37    39    42    1
    38    39    41    1
    39    33     7    1
    40    58    60    1
    41    58    57    1
    42    58    59    1
    43     1     3    1
    44     1     2    1
    45     1    43    1
    46    74    72    1
    47     3     4   am
    48    72    75    1
    49    72    47    1
    50    87    75    1
    51    45    43   am
    52    45    47    1
    53    86    83    1
    54    57    55    1
    55    88    83    1
    56    88    89    1
    57    55    52    1
    58    55    56    2
    59    52    53    1
    60    52    49    1
    61    12     9    1
    62    32    29    1
    63    43    44    2
    64    75    83    1
    65    75    76    1
    66    47    49    1
    67    47    48    1
    68    83    80    1
    69     4     7    1
    70     4     5    2
    71     7     9    1
    72     7     8    1
    73    31    29    1
    74     9    10   am
    75    29    30    1
    76    29    13    1
    77    49    51    1
    78    49    50    1
    79    18    15    1
    80    79    76    1
    81    76    78    1
    82    76    77    1
    83    10    13    1
    84    10    11    2
    85    80    85    1
    86    80    84    1
    87    80    77    1
    88    13    15    1
    89    13    14    1
    90    15    16   am
    91    77    82    1
    92    77    81    1
    93    24    23   ar
    94    24    19   ar
    95    16    19    1
    96    16    17    2
    97    23    21   ar
    98    19    20   ar
    99    27    25    1
   100    21    20   ar
   101    21    25    1
   102    20    22    1
   103    25    26    1
   104    25    28    1
@<TRIPOS>MOLECULE
crystal_redock_e8_er3_1.pdbqt
 102 104 0 0 0
SMALL
GASTEIGER

@<TRIPOS>ATOM
      1 C         -36.5620   16.1160   26.5210 C.3     1  UNL1        0.0890
      2 H         -37.1120   16.6620   27.2870 H       1  UNL1        0.0870
      3 N         -35.1430   16.2950   26.7900 N.am    1  UNL1       -0.3460
      4 C         -34.6870   17.2010   27.9060 C.2     1  UNL1        0.2410
      5 O         -35.4820   17.7770   28.5730 O.2     1  UNL1       -0.2710
      6 H         -34.4820   15.7970   26.2090 H       1  UNL1        0.1630
      7 C         -33.2150   17.3700   28.1740 C.3     1  UNL1        0.0920
      8 H         -33.0810   17.9330   29.0980 H       1  UNL1        0.0880
      9 N         -32.5990   16.0550   28.3740 N.am    1  UNL1       -0.3460
     10 C         -31.7320   15.8300   29.5050 C.2     1  UNL1        0.2400
     11 O         -31.5180   16.6960   30.2620 O.2     1  UNL1       -0.2710
     12 H         -32.7740   15.2980   27.7290 H       1  UNL1        0.1630
     13 C         -31.0780   14.4280   29.7110 C.3     1  UNL1        0.0860
     14 H         -30.4500   14.3830   30.6010 H       1  UNL1        0.0860
     15 N         -32.1280   13.4400   29.8930 N.am    1  UNL1       -0.3430
     16 C         -31.8340   12.1990   30.6130 C.2     1  UNL1        0.2730
     17 O         -30.7490   12.0040   31.0400 O.2     1  UNL1       -0.2660
     18 H         -33.0520   13.6130   29.5220 H       1  UNL1        0.1630
     19 C         -32.9350   11.1460   30.8130 C.ar    1  UNL1        0.1540
     20 C         -33.3080   10.1020   29.9080 C.ar    1  UNL1       -0.0170
     21 C         -34.3600    9.4170   30.5570 C.ar    1  UNL1        0.0770
     22 H         -32.8810    9.8760   28.9310 H       1  UNL1        0.0910
     23 O         -34.5580   10.0060   31.7000 O.2     1  UNL1       -0.2180
     24 N         -33.7390   11.0180   31.8720 N.ar    1  UNL1       -0.1230
     25 C         -35.1190    8.2130   30.0180 C.3     1  UNL1       -0.0290
     26 H         -35.9180    7.9470   30.7100 H       1  UNL1        0.0360
     27 H         -35.5480    8.4590   29.0460 H       1  UNL1        0.0360
     28 H         -34.4360    7.3710   29.9100 H       1  UNL1        0.0360
     29 C         -30.2420   14.0790   28.5060 C.3     1  UNL1       -0.0490
     30 H         -30.5060   13.0800   28.1580 H       1  UNL1        0.0300
     31 H         -30.4290   14.8010   27.7120 H       1  UNL1        0.0300
     32 H         -29.1860   14.1020   28.7770 H       1  UNL1        0.0300
     33 C         -32.5440   18.0730   26.9570 C.3     1  UNL1       -0.0330
     34 H         -31.5120   18.2900   27.2310 H       1  UNL1        0.0420
     35 C         -32.5120   17.1390   25.7080 C.3     1  UNL1       -0.0710
     36 H         -32.5570   17.7430   24.8010 H       1  UNL1        0.0280
     37 H         -31.5910   16.5580   25.7120 H       1  UNL1        0.0280
     38 H         -33.3680   16.4650   25.7360 H       1  UNL1        0.0280
     39 C         -33.2530   19.4280   26.6340 C.3     1  UNL1       -0.0710
     40 H         -33.1570   19.6430   25.5700 H       1  UNL1        0.0280
     41 H         -34.3080   19.3580   26.8980 H       1  UNL1        0.0280
     42 H         -32.7880   20.2280   27.2110 H       1  UNL1        0.0280
     43 C         -36.8810   14.5930   26.5420 C.2     1  UNL1        0.2400
     44 O         -37.9750   14.2230   26.8230 O.2     1  UNL1       -0.2710
     45 N         -35.8250   13.5970   26.2040 N.am    1  UNL1       -0.3550
     46 H         -34.8940   13.9000   25.9590 H       1  UNL1        0.1620
     47 C         -36.1450   12.1530   26.2270 C.3     1  UNL1        0.0130
     48 H         -37.0790   12.0260   26.7730 H       1  UNL1        0.0720
     49 C         -35.0320   11.4060   26.9250 C.3     1  UNL1       -0.0380
     50 H         -34.7360   12.0350   27.7650 H       1  UNL1        0.0360
     51 H         -35.4190   10.4030   27.1050 H       1  UNL1        0.0360
     52 C         -33.7770   11.2380   26.0420 C.3     1  UNL1        0.0180
     53 H         -33.3220   10.2970   26.3510 H       1  UNL1        0.0480
     54 H         -34.1190   11.3660   25.0140 H       1  UNL1        0.0480
     55 C         -32.6970   12.3310   26.2730 C.2     1  UNL1        0.2590
     56 O         -32.9610   13.3220   26.8720 O.2     1  UNL1       -0.2650
     57 O         -31.3890   12.1400   25.7470 O.3     1  UNL1       -0.3170
     58 C         -31.3610   11.8320   24.3510 C.3     1  UNL1        0.0520
     59 H         -30.7470   10.9360   24.2580 H       1  UNL1        0.0820
     60 H         -32.4030   11.8140   24.0320 H       1  UNL1        0.0820
     61 C         -30.6440   12.9970   23.6170 C.ar    1  UNL1       -0.0340
     62 C         -29.8610   12.7380   22.4970 C.ar    1  UNL1       -0.0750
     63 C         -29.2170   13.7840   21.8380 C.ar    1  UNL1       -0.0820
     64 H         -29.7520   11.7150   22.1350 H       1  UNL1        0.0840
     65 C         -29.3550   15.0940   22.3060 C.ar    1  UNL1       -0.0830
     66 H         -28.6050   13.5780   20.9590 H       1  UNL1        0.0830
     67 C         -30.1350   15.3470   23.4260 C.ar    1  UNL1       -0.0820
     68 H         -28.8560   15.9170   21.7960 H       1  UNL1        0.0830
     69 C         -30.7830   14.3050   24.0860 C.ar    1  UNL1       -0.0750
     70 H         -30.2390   16.3700   23.7900 H       1  UNL1        0.0830
     71 H         -31.3940   14.5120   24.9650 H       1  UNL1        0.0840
     72 C         -36.2910   11.6340   24.7980 C.3     1  UNL1       -0.0390
     73 H         -35.7260   12.3300   24.1770 H       1  UNL1        0.0360
     74 H         -36.0020   10.5830   24.8410 H       1  UNL1        0.0360
     75 C         -37.8130   11.6850   24.3010 C.3     1  UNL1       -0.0010
     76 C         -38.2370   10.2370   23.6470 C.3     1  UNL1       -0.0350
     77 C         -38.7810   10.4530   22.4250 C.3     1  UNL1        0.0850
     78 H         -37.3460    9.6490   23.4300 H       1  UNL1        0.0360
     79 H         -39.0560    9.7960   24.2160 H       1  UNL1        0.0360
     80 N         -38.4670   11.8800   22.0480 N.4     1  UNL1       -0.0490
     81 H         -38.2510    9.7810   21.7490 H       1  UNL1        0.0750
     82 H         -39.8560   10.3500   22.5620 H       1  UNL1        0.0750
     83 C         -37.9820   12.6030   23.4080 C.3     1  UNL1        0.1930
     84 H         -37.6860   11.8430   21.4080 H       1  UNL1        0.2800
     85 H         -39.3400   12.2970   21.7560 H       1  UNL1        0.2800
     86 H         -38.6480   13.2790   23.9430 H       1  UNL1        0.1290
     87 H         -38.4800   12.1030   25.0550 H       1  UNL1        0.0460
     88 O         -36.7880   13.3500   23.1710 O.3     1  UNL1       -0.3690
     89 H         -36.1370   13.1350   23.8430 H       1  UNL1        0.2120
     90 C         -36.8830   16.6860   25.1490 C.3     1  UNL1       -0.0350
     91 H         -35.9190   16.8130   24.6570 H       1  UNL1        0.0370
     92 H         -37.6280   16.0140   24.7240 H       1  UNL1        0.0370
     93 C         -37.5420   18.1010   25.1980 C.3     1  UNL1       -0.0590
     94 H         -38.2620   18.1590   24.3820 H       1  UNL1        0.0380
     95 C         -38.3160   18.3450   26.5340 C.3     1  UNL1       -0.0730
     96 H         -39.2910   18.7790   26.3150 H       1  UNL1        0.0280
     97 H         -38.4490   17.3980   27.0550 H       1  UNL1        0.0280
     98 H         -37.7470   19.0290   27.1630 H       1  UNL1        0.0280
     99 C         -36.5010   19.1980   24.9640 C.3     1  UNL1       -0.0730
    100 H         -36.0950   19.5260   25.9220 H       1  UNL1        0.0280
    101 H         -35.6940   18.8080   24.3430 H       1  UNL1        0.0280
    102 H         -36.9690   20.0430   24.4600 H       1  UNL1        0.0280
@<TRIPOS>BOND
     1    66    63    1
     2    84    80    1
     3    81    77    1
     4    85    80    1
     5    68    65    1
     6    63    65   ar
     7    63    62   ar
     8    80    77    1
     9    80    83    1
    10    64    62    1
    11    65    67   ar
    12    77    82    1
    13    77    76    1
    14    62    61   ar
    15    88    83    1
    16    88    89    1
    17    83    86    1
    18    83    75    1
    19    67    70    1
    20    67    69   ar
    21    78    76    1
    22    61    69   ar
    23    61    58    1
    24    76    79    1
    25    76    75    1
    26    60    58    1
    27    69    71    1
    28    73    72    1
    29    59    58    1
    30    75    72    1
    31    75    87    1
    32   101    99    1
    33    58    57    1
    34    94    93    1
    35   102    99    1
    36    91    90    1
    37    92    90    1
    38    72    74    1
    39    72    47    1
    40    36    35    1
    41    99    93    1
    42    99   100    1
    43    54    52    1
    44    90    93    1
    45    90     1    1
    46    93    95    1
    47    40    39    1
    48    35    37    1
    49    35    38    1
    50    35    33    1
    51    57    55    1
    52    46    45    1
    53    52    55    1
    54    52    53    1
    55    52    49    1
    56    45    47    1
    57    45    43   am
    58     6     3    1
    59    47    48    1
    60    47    49    1
    61    55    56    2
    62    96    95    1
    63     1    43    1
    64     1     3    1
    65     1     2    1
    66    95    97    1
    67    95    98    1
    68    43    44    2
    69    39    41    1
    70    39    33    1
    71    39    42    1
    72     3     4   am
    73    49    51    1
    74    49    50    1
    75    33    34    1
    76    33     7    1
    77    31    29    1
    78    12     9    1
    79     4     7    1
    80     4     5    2
    81    30    29    1
    82     7     9    1
    83     7     8    1
    84     9    10   am
    85    29    32    1
    86    29    13    1
    87    22    20    1
    88    27    25    1
    89    10    13    1
    90    10    11    2
    91    18    15    1
    92    13    15    1
    93    13    14    1
    94    15    16   am
    95    20    21   ar
    96    20    19   ar
    97    28    25    1
    98    25    21    1
    99    25    26    1
   100    21    23   ar
   101    16    19    1
   102    16    17    2
   103    19    24   ar
   104    23    24   ar
@<TRIPOS>MOLECULE
crystal_redock_e8_er3_1.pdbqt
 102 104 0 0 0
SMALL
GASTEIGER

@<TRIPOS>ATOM
      1 C         -33.8960    7.0690   27.8370 C.3     1  UNL1        0.0890
      2 H         -33.4900    6.6440   28.7560 H       1  UNL1        0.0870
      3 N         -34.2830    8.4430   28.1230 N.am    1  UNL1       -0.3460
      4 C         -34.7740    8.8260   29.4960 C.2     1  UNL1        0.2410
      5 O         -34.8520    8.0100   30.3550 O.2     1  UNL1       -0.2710
      6 H         -34.2110    9.1210   27.3780 H       1  UNL1        0.1630
      7 C         -35.1640   10.2530   29.7760 C.3     1  UNL1        0.0920
      8 H         -35.3200   10.3790   30.8480 H       1  UNL1        0.0880
      9 N         -34.0670   11.1450   29.3900 N.am    1  UNL1       -0.3460
     10 C         -33.0200   11.4500   30.3340 C.2     1  UNL1        0.2400
     11 O         -33.0450   10.9870   31.4090 O.2     1  UNL1       -0.2710
     12 H         -34.0320   11.5530   28.4670 H       1  UNL1        0.1630
     13 C         -31.8560   12.4020   29.9180 C.3     1  UNL1        0.0860
     14 H         -31.3140   12.0480   29.0410 H       1  UNL1        0.0860
     15 N         -32.4100   13.6990   29.5680 N.am    1  UNL1       -0.3430
     16 C         -31.6900   14.5630   28.6300 C.2     1  UNL1        0.2730
     17 O         -30.6640   14.2060   28.1650 O.2     1  UNL1       -0.2660
     18 H         -33.2870   13.9970   29.9730 H       1  UNL1        0.1630
     19 C         -32.2650   15.9360   28.2500 C.ar    1  UNL1        0.1540
     20 C         -32.5640   16.4140   26.9350 C.ar    1  UNL1       -0.0170
     21 C         -33.0660   17.7210   27.1290 C.ar    1  UNL1        0.0770
     22 H         -32.4360   15.8940   25.9860 H       1  UNL1        0.0910
     23 O         -33.0540   17.9540   28.4090 O.2     1  UNL1       -0.2180
     24 N         -32.5910   16.9280   29.0840 N.ar    1  UNL1       -0.1230
     25 C         -33.5350   18.6770   26.0400 C.3     1  UNL1       -0.0290
     26 H         -34.2910   19.3480   26.4470 H       1  UNL1        0.0360
     27 H         -32.6880   19.2610   25.6810 H       1  UNL1        0.0360
     28 H         -33.9600   18.1080   25.2140 H       1  UNL1        0.0360
     29 C         -30.8870   12.5460   31.0640 C.3     1  UNL1       -0.0490
     30 H         -31.2930   13.2440   31.7970 H       1  UNL1        0.0300
     31 H         -30.7320   11.5750   31.5330 H       1  UNL1        0.0300
     32 H         -29.9360   12.9250   30.6900 H       1  UNL1        0.0300
     33 C         -36.4360   10.6140   28.9540 C.3     1  UNL1       -0.0330
     34 H         -36.9590   11.4060   29.4880 H       1  UNL1        0.0420
     35 C         -36.0630   11.1660   27.5430 C.3     1  UNL1       -0.0710
     36 H         -34.9940   11.3770   27.5060 H       1  UNL1        0.0280
     37 H         -36.3130   10.4250   26.7840 H       1  UNL1        0.0280
     38 H         -36.6200   12.0840   27.3530 H       1  UNL1        0.0280
     39 C         -37.3980    9.3870   28.8450 C.3     1  UNL1       -0.0710
     40 H         -37.0380    8.7110   28.0700 H       1  UNL1        0.0280
     41 H         -37.4280    8.8630   29.8010 H       1  UNL1        0.0280
     42 H         -38.4000    9.7330   28.5910 H       1  UNL1        0.0280
     43 C         -32.8530    7.0780   26.6830 C.2     1  UNL1        0.2400
     44 O         -31.8370    6.4730   26.8000 O.2     1  UNL1       -0.2710
     45 N         -33.1260    7.8340   25.4270 N.am    1  UNL1       -0.3550
     46 H         -33.9880    8.3470   25.3140 H       1  UNL1        0.1620
     47 C         -32.1260    7.8310   24.3380 C.3     1  UNL1        0.0130
     48 H         -31.2050    7.4000   24.7300 H       1  UNL1        0.0720
     49 C         -31.8790    9.2510   23.8830 C.3     1  UNL1       -0.0380
     50 H         -30.8330    9.4570   24.1130 H       1  UNL1        0.0360
     51 H         -32.2290    9.2950   22.8510 H       1  UNL1        0.0360
     52 C         -32.7110   10.2860   24.6700 C.3     1  UNL1        0.0180
     53 H         -32.8780   11.1150   23.9830 H       1  UNL1        0.0480
     54 H         -33.5600    9.7350   25.0770 H       1  UNL1        0.0480
     55 C         -31.9670   10.8880   25.8940 C.2     1  UNL1        0.2590
     56 O         -32.1360   10.4420   26.9830 O.2     1  UNL1       -0.2650
     57 O         -31.0880   11.9900   25.7020 O.3     1  UNL1       -0.3170
     58 C         -31.7170   13.1460   25.1410 C.3     1  UNL1        0.0520
     59 H         -32.6630   12.7960   24.7290 H       1  UNL1        0.0820
     60 H         -31.7110   13.8970   25.9310 H       1  UNL1        0.0820
     61 C         -30.8300   13.6550   23.9740 C.ar    1  UNL1       -0.0340
     62 C         -30.2840   12.7500   23.0690 C.ar    1  UNL1       -0.0750
     63 C         -29.4870   13.2070   22.0200 C.ar    1  UNL1       -0.0820
     64 H         -30.4790   11.6840   23.1820 H       1  UNL1        0.0840
     65 C         -29.2360   14.5740   21.8790 C.ar    1  UNL1       -0.0830
     66 H         -29.0620   12.4960   21.3110 H       1  UNL1        0.0830
     67 C         -29.7810   15.4730   22.7860 C.ar    1  UNL1       -0.0820
     68 H         -28.6150   14.9400   21.0610 H       1  UNL1        0.0830
     69 C         -30.5790   15.0210   23.8340 C.ar    1  UNL1       -0.0750
     70 H         -29.5810   16.5390   22.6740 H       1  UNL1        0.0830
     71 H         -31.0050   15.7330   24.5420 H       1  UNL1        0.0840
     72 C         -32.6420    7.0020   23.1640 C.3     1  UNL1       -0.0390
     73 H         -31.8680    6.2580   22.9710 H       1  UNL1        0.0360
     74 H         -33.6440    6.6830   23.4530 H       1  UNL1        0.0360
     75 C         -32.7910    7.8840   21.8350 C.3     1  UNL1       -0.0010
     76 C         -34.3830    8.1240   21.4980 C.3     1  UNL1       -0.0350
     77 C         -34.6120    7.7800   20.2080 C.3     1  UNL1        0.0850
     78 H         -34.9940    7.4190   22.0610 H       1  UNL1        0.0360
     79 H         -34.6150    9.1890   21.5230 H       1  UNL1        0.0360
     80 N         -33.3970    7.0220   19.7310 N.4     1  UNL1       -0.0490
     81 H         -35.4660    7.1040   20.2340 H       1  UNL1        0.0750
     82 H         -34.6790    8.7220   19.6640 H       1  UNL1        0.0750
     83 C         -32.2420    7.3010   20.8230 C.3     1  UNL1        0.1930
     84 H         -33.6400    6.0420   19.7630 H       1  UNL1        0.2800
     85 H         -33.1220    7.4450   18.8560 H       1  UNL1        0.2800
     86 H         -31.4330    8.0000   20.6070 H       1  UNL1        0.1290
     87 H         -32.1500    8.7650   21.8510 H       1  UNL1        0.0460
     88 O         -31.6020    6.0770   21.1880 O.3     1  UNL1       -0.3690
     89 H         -31.6030    5.9880   22.1440 H       1  UNL1        0.2120
     90 C         -35.1270    6.2860   27.4090 C.3     1  UNL1       -0.0350
     91 H         -35.9690    6.9570   27.5770 H       1  UNL1        0.0370
     92 H         -34.9060    5.9300   26.4020 H       1  UNL1        0.0370
     93 C         -35.3960    5.0160   28.2780 C.3     1  UNL1       -0.0590
     94 H         -35.3690    4.1510   27.6160 H       1  UNL1        0.0380
     95 C         -34.3020    4.8110   29.3750 C.3     1  UNL1       -0.0730
     96 H         -34.7490    4.3360   30.2480 H       1  UNL1        0.0280
     97 H         -33.5090    4.1750   28.9830 H       1  UNL1        0.0280
     98 H         -33.8870    5.7770   29.6590 H       1  UNL1        0.0280
     99 C         -36.7920    5.0670   28.9030 C.3     1  UNL1       -0.0730
    100 H         -36.7460    5.6010   29.8530 H       1  UNL1        0.0280
    101 H         -37.4740    5.5850   28.2280 H       1  UNL1        0.0280
    102 H         -37.1510    4.0530   29.0730 H       1  UNL1        0.0280
@<TRIPOS>BOND
     1    85    80    1
     2    82    77    1
     3    80    84    1
     4    80    77    1
     5    80    83    1
     6    77    81    1
     7    77    76    1
     8    86    83    1
     9    83    88    1
    10    83    75    1
    11    68    65    1
    12    88    89    1
    13    66    63    1
    14    76    79    1
    15    76    75    1
    16    76    78    1
    17    75    87    1
    18    75    72    1
    19    65    63   ar
    20    65    67   ar
    21    63    62   ar
    22    70    67    1
    23    67    69   ar
    24    51    49    1
    25    73    72    1
    26    62    64    1
    27    62    61   ar
    28    72    74    1
    29    72    47    1
    30    69    61   ar
    31    69    71    1
    32    49    50    1
    33    49    47    1
    34    49    52    1
    35    61    58    1
    36    53    52    1
    37    47    48    1
    38    47    45    1
    39    52    54    1
    40    52    55    1
    41    59    58    1
    42    58    57    1
    43    58    60    1
    44    28    25    1
    45    46    45    1
    46    45    43   am
    47    27    25    1
    48    57    55    1
    49    55    56    2
    50    22    20    1
    51    25    26    1
    52    25    21    1
    53    92    90    1
    54    43    44    2
    55    43     1    1
    56    37    35    1
    57    20    21   ar
    58    20    19   ar
    59    21    23   ar
    60    38    35    1
    61     6     3    1
    62    90    91    1
    63    90     1    1
    64    90    93    1
    65    36    35    1
    66    35    33    1
    67    94    93    1
    68     1     3    1
    69     1     2    1
    70    40    39    1
    71     3     4   am
    72    17    16    2
    73   101    99    1
    74    19    16    1
    75    19    24   ar
    76    93    99    1
    77    93    95    1
    78    23    24   ar
    79    12     9    1
    80    42    39    1
    81    16    15   am
    82    39    33    1
    83    39    41    1
    84    99   102    1
    85    99   100    1
    86    33    34    1
    87    33     7    1
    88    97    95    1
    89    14    13    1
    90    95    98    1
    91    95    96    1
    92     9     7    1
    93     9    10   am
    94     4     7    1
    95     4     5    2
    96    15    13    1
    97    15    18    1
    98     7     8    1
    99    13    10    1
   100    13    29    1
   101    10    11    2
   102    32    29    1
   103    29    31    1
   104    29    30    1
@<TRIPOS>MOLECULE
crystal_redock_e8_er3_1.pdbqt
 102 104 0 0 0
SMALL
GASTEIGER

@<TRIPOS>ATOM
      1 C         -30.9510   14.2010   24.0140 C.3     1  UNL1        0.0890
      2 H         -29.9120   14.2820   24.3340 H       1  UNL1        0.0870
      3 N         -31.3600   12.8170   24.1980 N.am    1  UNL1       -0.3460
      4 C         -30.6600   11.7100   23.4500 C.2     1  UNL1        0.2410
      5 O         -29.7720   11.9590   22.7030 O.2     1  UNL1       -0.2710
      6 H         -32.1190   12.6260   24.8360 H       1  UNL1        0.1630
      7 C         -31.0920   10.2820   23.6560 C.3     1  UNL1        0.0920
      8 H         -30.6520    9.9040   24.5790 H       1  UNL1        0.0880
      9 N         -32.5480   10.2310   23.8190 N.am    1  UNL1       -0.3460
     10 C         -33.1200    9.6730   25.0200 C.2     1  UNL1        0.2400
     11 O         -32.4230    9.2590   25.8650 O.2     1  UNL1       -0.2710
     12 H         -33.1620   10.5820   23.0980 H       1  UNL1        0.1630
     13 C         -34.6700    9.6180   25.1860 C.3     1  UNL1        0.0860
     14 H         -34.9770    9.2170   26.1520 H       1  UNL1        0.0860
     15 N         -35.2010   10.9690   25.1090 N.am    1  UNL1       -0.3430
     16 C         -35.4450   11.7190   26.3430 C.2     1  UNL1        0.2730
     17 O         -35.2150   11.2260   27.3920 O.2     1  UNL1       -0.2660
     18 H         -35.3970   11.3820   24.2080 H       1  UNL1        0.1630
     19 C         -36.0040   13.1490   26.2760 C.ar    1  UNL1        0.1540
     20 C         -35.4670   14.2540   25.5420 C.ar    1  UNL1       -0.0170
     21 C         -36.3430   15.3290   25.8120 C.ar    1  UNL1        0.0770
     22 H         -34.5790   14.2730   24.9100 H       1  UNL1        0.0910
     23 O         -37.2710   14.8830   26.6080 O.2     1  UNL1       -0.2180
     24 N         -37.0940   13.6140   26.8930 N.ar    1  UNL1       -0.1230
     25 C         -36.2230   16.7480   25.2710 C.3     1  UNL1       -0.0290
     26 H         -35.6240   16.7400   24.3600 H       1  UNL1        0.0360
     27 H         -37.2160   17.1370   25.0490 H       1  UNL1        0.0360
     28 H         -35.7420   17.3820   26.0160 H       1  UNL1        0.0360
     29 C         -35.2660    8.7660   24.0940 C.3     1  UNL1       -0.0490
     30 H         -34.9560    9.1520   23.1230 H       1  UNL1        0.0300
     31 H         -34.9190    7.7390   24.2050 H       1  UNL1        0.0300
     32 H         -36.3530    8.7920   24.1650 H       1  UNL1        0.0300
     33 C         -30.6810    9.4310   22.4190 C.3     1  UNL1       -0.0330
     34 H         -30.5380   10.1160   21.5830 H       1  UNL1        0.0420
     35 C         -29.3270    8.6950   22.6610 C.3     1  UNL1       -0.0710
     36 H         -29.4900    7.6170   22.6400 H       1  UNL1        0.0280
     37 H         -28.6190    8.9700   21.8790 H       1  UNL1        0.0280
     38 H         -28.9250    8.9820   23.6320 H       1  UNL1        0.0280
     39 C         -31.8120    8.4250   22.0310 C.3     1  UNL1       -0.0710
     40 H         -31.3940    7.4210   21.9530 H       1  UNL1        0.0280
     41 H         -32.5880    8.4380   22.7970 H       1  UNL1        0.0280
     42 H         -32.2440    8.7150   21.0740 H       1  UNL1        0.0280
     43 C         -31.8950   15.1120   24.8500 C.2     1  UNL1        0.2400
     44 O         -32.7000   15.7920   24.3000 O.2     1  UNL1       -0.2710
     45 N         -31.8020   15.1290   26.3380 N.am    1  UNL1       -0.3550
     46 H         -31.1260   14.5510   26.8160 H       1  UNL1        0.1620
     47 C         -32.7080   15.9990   27.1190 C.3     1  UNL1        0.0130
     48 H         -33.6980   15.9430   26.6670 H       1  UNL1        0.0720
     49 C         -32.1980   17.4210   27.0720 C.3     1  UNL1       -0.0380
     50 H         -31.3450   17.4510   27.7500 H       1  UNL1        0.0360
     51 H         -32.0620   17.6500   26.0150 H       1  UNL1        0.0360
     52 C         -33.2220   18.4430   27.6120 C.3     1  UNL1        0.0180
     53 H         -34.0720   17.8560   27.9550 H       1  UNL1        0.0480
     54 H         -32.6710   19.0690   28.3150 H       1  UNL1        0.0480
     55 C         -33.7770   19.4060   26.5260 C.2     1  UNL1        0.2590
     56 O         -33.4750   19.2680   25.3850 O.2     1  UNL1       -0.2650
     57 O         -34.6440   20.4660   26.9120 O.3     1  UNL1       -0.3170
     58 C         -36.0250   20.2200   26.6310 C.3     1  UNL1        0.0520
     59 H         -36.4460   21.1860   26.3540 H       1  UNL1        0.0820
     60 H         -36.0390   19.3950   25.9200 H       1  UNL1        0.0820
     61 C         -36.7040   19.7470   27.9440 C.ar    1  UNL1       -0.0340
     62 C         -37.5670   18.6560   27.9290 C.ar    1  UNL1       -0.0750
     63 C         -38.1770   18.2310   29.1080 C.ar    1  UNL1       -0.0820
     64 H         -37.7650   18.1330   26.9920 H       1  UNL1        0.0840
     65 C         -37.9240   18.9040   30.3060 C.ar    1  UNL1       -0.0830
     66 H         -38.8520   17.3740   29.0920 H       1  UNL1        0.0830
     67 C         -37.0650   19.9940   30.3160 C.ar    1  UNL1       -0.0820
     68 H         -38.3960   18.5780   31.2330 H       1  UNL1        0.0830
     69 C         -36.4510   20.4210   29.1410 C.ar    1  UNL1       -0.0750
     70 H         -36.8710   20.5180   31.2530 H       1  UNL1        0.0830
     71 H         -35.7770   21.2770   29.1570 H       1  UNL1        0.0840
     72 C         -32.7580   15.5230   28.5690 C.3     1  UNL1       -0.0390
     73 H         -32.5040   16.3960   29.1700 H       1  UNL1        0.0360
     74 H         -33.7320   15.0460   28.6850 H       1  UNL1        0.0360
     75 C         -31.6480   14.4060   28.8650 C.3     1  UNL1       -0.0010
     76 C         -32.3740   12.9810   29.2450 C.3     1  UNL1       -0.0350
     77 C         -31.8470   12.5180   30.4040 C.3     1  UNL1        0.0850
     78 H         -33.4220   13.1500   29.4910 H       1  UNL1        0.0360
     79 H         -32.1010   12.2160   28.5180 H       1  UNL1        0.0360
     80 N         -31.0640   13.6530   31.0180 N.4     1  UNL1       -0.0490
     81 H         -32.7010   12.2890   31.0410 H       1  UNL1        0.0750
     82 H         -31.1570   11.7270   30.1140 H       1  UNL1        0.0750
     83 C         -30.8870   14.7530   29.8500 C.3     1  UNL1        0.1930
     84 H         -31.6490   14.0450   31.7420 H       1  UNL1        0.2800
     85 H         -30.1550   13.2800   31.2500 H       1  UNL1        0.2800
     86 H         -29.9330   14.8640   29.3330 H       1  UNL1        0.1290
     87 H         -30.8740   14.3800   28.0980 H       1  UNL1        0.0460
     88 O         -31.2070   16.0540   30.3450 O.3     1  UNL1       -0.3690
     89 H         -30.9800   16.7130   29.6840 H       1  UNL1        0.2120
     90 C         -31.0660   14.5610   22.5410 C.3     1  UNL1       -0.0350
     91 H         -30.8530   13.6390   22.0010 H       1  UNL1        0.0370
     92 H         -32.0390   15.0410   22.4370 H       1  UNL1        0.0370
     93 C         -30.0060   15.6050   22.0670 C.3     1  UNL1       -0.0590
     94 H         -30.1940   16.5350   22.6040 H       1  UNL1        0.0380
     95 C         -28.5460   15.1530   22.3930 C.3     1  UNL1       -0.0730
     96 H         -28.1530   14.5660   21.5630 H       1  UNL1        0.0280
     97 H         -27.9190   16.0310   22.5450 H       1  UNL1        0.0280
     98 H         -28.5480   14.5460   23.2980 H       1  UNL1        0.0280
     99 C         -30.1620   15.9030   20.5730 C.3     1  UNL1       -0.0730
    100 H         -29.2760   15.5610   20.0390 H       1  UNL1        0.0280
    101 H         -31.0410   15.3840   20.1890 H       1  UNL1        0.0280
    102 H         -30.2830   16.9760   20.4270 H       1  UNL1        0.0280
@<TRIPOS>BOND
     1   100    99    1
     2   101    99    1
     3   102    99    1
     4    99    93    1
     5    42    39    1
     6    96    95    1
     7    34    33    1
     8    37    35    1
     9    40    39    1
    10    91    90    1
    11    39    33    1
    12    39    41    1
    13    93    95    1
    14    93    90    1
    15    93    94    1
    16    95    97    1
    17    95    98    1
    18    33    35    1
    19    33     7    1
    20    92    90    1
    21    90     1    1
    22    36    35    1
    23    35    38    1
    24     5     4    2
    25    12     9    1
    26    30    29    1
    27     4     7    1
    28     4     3   am
    29     7     9    1
    30     7     8    1
    31     9    10   am
    32     1     3    1
    33     1     2    1
    34     1    43    1
    35    29    32    1
    36    29    31    1
    37    29    13    1
    38     3     6    1
    39    18    15    1
    40    44    43    2
    41    26    25    1
    42    43    45   am
    43    22    20    1
    44    10    13    1
    45    10    11    2
    46    27    25    1
    47    15    13    1
    48    15    16   am
    49    13    14    1
    50    25    21    1
    51    25    28    1
    52    56    55    2
    53    20    21   ar
    54    20    19   ar
    55    21    23   ar
    56    60    58    1
    57    51    49    1
    58    19    16    1
    59    19    24   ar
    60    45    46    1
    61    45    47    1
    62    16    17    2
    63    59    58    1
    64    55    57    1
    65    55    52    1
    66    23    24   ar
    67    58    57    1
    68    58    61    1
    69    48    47    1
    70    64    62    1
    71    49    47    1
    72    49    52    1
    73    49    50    1
    74    47    72    1
    75    52    53    1
    76    52    54    1
    77    62    61   ar
    78    62    63   ar
    79    61    69   ar
    80    87    75    1
    81    79    76    1
    82    72    74    1
    83    72    75    1
    84    72    73    1
    85    75    76    1
    86    75    83    1
    87    66    63    1
    88    63    65   ar
    89    69    71    1
    90    69    67   ar
    91    76    78    1
    92    76    77    1
    93    86    83    1
    94    89    88    1
    95    83    88    1
    96    83    80    1
    97    82    77    1
    98    65    67   ar
    99    65    68    1
   100    67    70    1
   101    77    80    1
   102    77    81    1
   103    80    85    1
   104    80    84    1
@<TRIPOS>MOLECULE
crystal_redock_e8_er3_1.pdbqt
 102 104 0 0 0
SMALL
GASTEIGER

@<TRIPOS>ATOM
      1 C         -33.2150    9.8430   24.7880 C.3     1  UNL1        0.0890
      2 H         -33.6110    9.0690   24.1290 H       1  UNL1        0.0870
      3 N         -34.2020   10.9100   24.8520 N.am    1  UNL1       -0.3460
      4 C         -35.6720   10.5970   24.7290 C.2     1  UNL1        0.2410
      5 O         -36.0360    9.4780   24.5750 O.2     1  UNL1       -0.2710
      6 H         -33.8720   11.8560   24.9810 H       1  UNL1        0.1630
      7 C         -36.6800   11.7130   24.8030 C.3     1  UNL1        0.0920
      8 H         -37.1920   11.6700   25.7650 H       1  UNL1        0.0880
      9 N         -35.9870   13.0040   24.7390 N.am    1  UNL1       -0.3460
     10 C         -35.9890   13.8810   25.8840 C.2     1  UNL1        0.2400
     11 O         -36.5450   13.5640   26.8650 O.2     1  UNL1       -0.2710
     12 H         -35.5050   13.2910   23.9000 H       1  UNL1        0.1630
     13 C         -35.2530   15.2540   25.8090 C.3     1  UNL1        0.0860
     14 H         -34.8060   15.5450   26.7590 H       1  UNL1        0.0860
     15 N         -34.1640   15.1520   24.8510 N.am    1  UNL1       -0.3430
     16 C         -32.7790   15.2030   25.3250 C.2     1  UNL1        0.2730
     17 O         -32.5520   15.3290   26.4790 O.2     1  UNL1       -0.2660
     18 H         -34.3670   15.0480   23.8670 H       1  UNL1        0.1630
     19 C         -31.6180   15.0960   24.3250 C.ar    1  UNL1        0.1540
     20 C         -31.1150   13.9060   23.7090 C.ar    1  UNL1       -0.0170
     21 C         -30.0570   14.3450   22.8820 C.ar    1  UNL1        0.0770
     22 H         -31.4630   12.8820   23.8420 H       1  UNL1        0.0910
     23 O         -29.9720   15.6360   23.0130 O.2     1  UNL1       -0.2180
     24 N         -30.8720   16.0980   23.8500 N.ar    1  UNL1       -0.1230
     25 C         -29.1790   13.4670   21.9990 C.3     1  UNL1       -0.0290
     26 H         -29.3030   12.4230   22.2860 H       1  UNL1        0.0360
     27 H         -29.4720   13.5930   20.9570 H       1  UNL1        0.0360
     28 H         -28.1360   13.7570   22.1210 H       1  UNL1        0.0360
     29 C         -36.2220   16.3240   25.3770 C.3     1  UNL1       -0.0490
     30 H         -37.0410   15.8690   24.8200 H       1  UNL1        0.0300
     31 H         -36.6180   16.8310   26.2560 H       1  UNL1        0.0300
     32 H         -35.7080   17.0460   24.7420 H       1  UNL1        0.0300
     33 C         -37.6700   11.5990   23.6070 C.3     1  UNL1       -0.0330
     34 H         -37.2780   10.8430   22.9270 H       1  UNL1        0.0420
     35 C         -39.0790   11.1200   24.0790 C.3     1  UNL1       -0.0710
     36 H         -39.3930   10.2670   23.4770 H       1  UNL1        0.0280
     37 H         -39.0310   10.8280   25.1270 H       1  UNL1        0.0280
     38 H         -39.7970   11.9320   23.9600 H       1  UNL1        0.0280
     39 C         -37.7630   12.9500   22.8270 C.3     1  UNL1       -0.0710
     40 H         -37.9050   13.7680   23.5330 H       1  UNL1        0.0280
     41 H         -36.8410   13.1100   22.2660 H       1  UNL1        0.0280
     42 H         -38.6060   12.9140   22.1370 H       1  UNL1        0.0280
     43 C         -32.9620    9.3140   26.2290 C.2     1  UNL1        0.2400
     44 O         -32.4880    8.2360   26.3880 O.2     1  UNL1       -0.2710
     45 N         -33.3030   10.1570   27.4110 N.am    1  UNL1       -0.3550
     46 H         -33.7010   11.0760   27.2880 H       1  UNL1        0.1620
     47 C         -33.0550    9.6400   28.7740 C.3     1  UNL1        0.0130
     48 H         -32.3120    8.8460   28.7020 H       1  UNL1        0.0720
     49 C         -34.3440    9.0920   29.3430 C.3     1  UNL1       -0.0380
     50 H         -35.1430    9.6340   28.8370 H       1  UNL1        0.0360
     51 H         -34.2720    8.0090   29.2450 H       1  UNL1        0.0360
     52 C         -34.5050    9.3840   30.8510 C.3     1  UNL1        0.0180
     53 H         -33.5370    9.1640   31.3000 H       1  UNL1        0.0480
     54 H         -34.9190   10.3910   30.9140 H       1  UNL1        0.0480
     55 C         -35.5270    8.4550   31.5630 C.2     1  UNL1        0.2590
     56 O         -36.6460    8.8130   31.7400 O.2     1  UNL1       -0.2650
     57 O         -35.1070    7.1730   32.0130 O.3     1  UNL1       -0.3170
     58 C         -35.6320    6.0850   31.2460 C.3     1  UNL1        0.0520
     59 H         -36.2880    5.5370   31.9220 H       1  UNL1        0.0820
     60 H         -36.0360    6.5330   30.3380 H       1  UNL1        0.0820
     61 C         -34.4480    5.1610   30.8530 C.ar    1  UNL1       -0.0340
     62 C         -33.7560    4.4600   31.8350 C.ar    1  UNL1       -0.0750
     63 C         -32.6930    3.6300   31.4820 C.ar    1  UNL1       -0.0820
     64 H         -34.0470    4.5600   32.8810 H       1  UNL1        0.0840
     65 C         -32.3210    3.5050   30.1410 C.ar    1  UNL1       -0.0830
     66 H         -32.1540    3.0800   32.2540 H       1  UNL1        0.0830
     67 C         -33.0120    4.2100   29.1650 C.ar    1  UNL1       -0.0820
     68 H         -31.4910    2.8580   29.8560 H       1  UNL1        0.0830
     69 C         -34.0770    5.0390   29.5120 C.ar    1  UNL1       -0.0750
     70 H         -32.7170    4.1120   28.1190 H       1  UNL1        0.0830
     71 H         -34.6150    5.5880   28.7400 H       1  UNL1        0.0840
     72 C         -32.5410   10.7670   29.6680 C.3     1  UNL1       -0.0390
     73 H         -33.2920   10.8820   30.4500 H       1  UNL1        0.0360
     74 H         -31.5200   10.4880   29.9290 H       1  UNL1        0.0360
     75 C         -32.4630   12.1600   28.8800 C.3     1  UNL1       -0.0010
     76 C         -30.9080   12.4710   28.4440 C.3     1  UNL1       -0.0350
     77 C         -30.5820   13.7210   28.8520 C.3     1  UNL1        0.0850
     78 H         -30.2280   11.8340   29.0090 H       1  UNL1        0.0360
     79 H         -30.8270   12.5270   27.3590 H       1  UNL1        0.0360
     80 N         -31.6600   14.1680   29.8090 N.4     1  UNL1       -0.0490
     81 H         -29.6440   13.6140   29.3960 H       1  UNL1        0.0750
     82 H         -30.6250   14.3390   27.9560 H       1  UNL1        0.0750
     83 C         -32.8860   13.1360   29.6120 C.3     1  UNL1        0.1930
     84 H         -31.2850   14.0470   30.7390 H       1  UNL1        0.2800
     85 H         -31.9560   15.0820   29.4990 H       1  UNL1        0.2800
     86 H         -33.7740   13.4320   29.0540 H       1  UNL1        0.1290
     87 H         -33.2210   12.2360   28.1000 H       1  UNL1        0.0460
     88 O         -33.3640   12.6890   30.8820 O.3     1  UNL1       -0.3690
     89 H         -34.3100   12.8430   30.9400 H       1  UNL1        0.2120
     90 C         -31.9220   10.3980   24.2120 C.3     1  UNL1       -0.0350
     91 H         -32.1240   11.4490   24.0090 H       1  UNL1        0.0370
     92 H         -31.1460   10.1200   24.9250 H       1  UNL1        0.0370
     93 C         -31.5170    9.7550   22.8470 C.3     1  UNL1       -0.0590
     94 H         -31.8450   10.4280   22.0550 H       1  UNL1        0.0380
     95 C         -29.9710    9.5800   22.7140 C.3     1  UNL1       -0.0730
     96 H         -29.6610    9.8430   21.7030 H       1  UNL1        0.0280
     97 H         -29.4680   10.2310   23.4280 H       1  UNL1        0.0280
     98 H         -29.7040    8.5430   22.9170 H       1  UNL1        0.0280
     99 C         -32.2370    8.4200   22.6370 C.3     1  UNL1       -0.0730
    100 H         -33.2640    8.6070   22.3230 H       1  UNL1        0.0280
    101 H         -31.7210    7.8460   21.8670 H       1  UNL1        0.0280
    102 H         -32.2380    7.8570   23.5690 H       1  UNL1        0.0280
@<TRIPOS>BOND
     1    27    25    1
     2    96    95    1
     3   101    99    1
     4    25    28    1
     5    25    26    1
     6    25    21    1
     7    94    93    1
     8    42    39    1
     9    41    39    1
    10   100    99    1
    11    99    93    1
    12    99   102    1
    13    95    93    1
    14    95    98    1
    15    95    97    1
    16    39    40    1
    17    39    33    1
    18    93    90    1
    19    21    23   ar
    20    21    20   ar
    21    34    33    1
    22    23    24   ar
    23    36    35    1
    24    33    35    1
    25    33     7    1
    26    20    22    1
    27    20    19   ar
    28    24    19   ar
    29    18    15    1
    30    12     9    1
    31    38    35    1
    32    91    90    1
    33    35    37    1
    34     2     1    1
    35    90     1    1
    36    90    92    1
    37    19    16    1
    38     5     4    2
    39     4     7    1
    40     4     3   am
    41     9     7    1
    42     9    10   am
    43    32    29    1
    44     1     3    1
    45     1    43    1
    46     7     8    1
    47    30    29    1
    48    15    16   am
    49    15    13    1
    50     3     6    1
    51    16    17    2
    52    29    13    1
    53    29    31    1
    54    13    10    1
    55    13    14    1
    56    10    11    2
    57    43    44    2
    58    43    45   am
    59    46    45    1
    60    79    76    1
    61    45    47    1
    62    82    77    1
    63    87    75    1
    64    70    67    1
    65    76    77    1
    66    76    75    1
    67    76    78    1
    68    48    47    1
    69    71    69    1
    70    47    49    1
    71    47    72    1
    72    50    49    1
    73    77    81    1
    74    77    80    1
    75    75    83    1
    76    75    72    1
    77    86    83    1
    78    67    69   ar
    79    67    65   ar
    80    51    49    1
    81    49    52    1
    82    85    80    1
    83    69    61   ar
    84    83    80    1
    85    83    88    1
    86    72    74    1
    87    72    73    1
    88    80    84    1
    89    68    65    1
    90    65    63   ar
    91    60    58    1
    92    52    54    1
    93    52    53    1
    94    52    55    1
    95    61    58    1
    96    61    62   ar
    97    88    89    1
    98    58    59    1
    99    58    57    1
   100    63    62   ar
   101    63    66    1
   102    55    56    2
   103    55    57    1
   104    62    64    1
@<TRIPOS>MOLECULE
crystal_redock_e8_er3_1.pdbqt
 102 104 0 0 0
SMALL
GASTEIGER

@<TRIPOS>ATOM
      1 C         -32.9440   10.3880   25.4830 C.3     1  UNL1        0.0890
      2 H         -33.6450   10.4610   24.6510 H       1  UNL1        0.0870
      3 N         -32.3810    9.0460   25.4650 N.am    1  UNL1       -0.3460
      4 C         -33.1390    7.9100   24.8250 C.2     1  UNL1        0.2410
      5 O         -34.2020    8.1000   24.3330 O.2     1  UNL1       -0.2710
      6 H         -31.4760    8.9050   25.8920 H       1  UNL1        0.1630
      7 C         -32.5390    6.5290   24.8110 C.3     1  UNL1        0.0920
      8 H         -31.4730    6.5990   25.0310 H       1  UNL1        0.0880
      9 N         -33.1480    5.7200   25.8710 N.am    1  UNL1       -0.3460
     10 C         -32.6740    5.8360   27.2280 C.2     1  UNL1        0.2400
     11 O         -31.8020    6.5750   27.4850 O.2     1  UNL1       -0.2710
     12 H         -33.8990    5.0780   25.6650 H       1  UNL1        0.1630
     13 C         -33.3240    4.9710   28.3520 C.3     1  UNL1        0.0860
     14 H         -32.6920    4.8820   29.2350 H       1  UNL1        0.0860
     15 N         -34.5560    5.6080   28.7850 N.am    1  UNL1       -0.3430
     16 C         -34.9340    5.5620   30.1990 C.2     1  UNL1        0.2730
     17 O         -34.2420    5.0070   30.9800 O.2     1  UNL1       -0.2660
     18 H         -35.1440    6.0780   28.1100 H       1  UNL1        0.1630
     19 C         -36.2340    6.2330   30.6710 C.ar    1  UNL1        0.1540
     20 C         -36.5180    7.6350   30.7100 C.ar    1  UNL1       -0.0170
     21 C         -37.8340    7.7250   31.2170 C.ar    1  UNL1        0.0770
     22 H         -35.8690    8.4600   30.4150 H       1  UNL1        0.0910
     23 O         -38.2470    6.5120   31.4380 O.2     1  UNL1       -0.2180
     24 N         -37.3310    5.6240   31.1280 N.ar    1  UNL1       -0.1230
     25 C         -38.6210    9.0060   31.4580 C.3     1  UNL1       -0.0290
     26 H         -38.1740    9.8210   30.8890 H       1  UNL1        0.0360
     27 H         -39.6530    8.8640   31.1380 H       1  UNL1        0.0360
     28 H         -38.6010    9.2510   32.5200 H       1  UNL1        0.0360
     29 C         -33.6160    3.5900   27.8210 C.3     1  UNL1       -0.0490
     30 H         -33.9820    2.9590   28.6310 H       1  UNL1        0.0300
     31 H         -34.3720    3.6540   27.0400 H       1  UNL1        0.0300
     32 H         -32.7030    3.1590   27.4090 H       1  UNL1        0.0300
     33 C         -32.8090    5.8600   23.4320 C.3     1  UNL1       -0.0330
     34 H         -33.6680    6.3620   22.9860 H       1  UNL1        0.0420
     35 C         -31.6010    6.0480   22.4620 C.3     1  UNL1       -0.0710
     36 H         -31.8490    6.8040   21.7150 H       1  UNL1        0.0280
     37 H         -30.7280    6.3700   23.0280 H       1  UNL1        0.0280
     38 H         -31.3850    5.1040   21.9630 H       1  UNL1        0.0280
     39 C         -33.1670    4.3490   23.6030 C.3     1  UNL1       -0.0710
     40 H         -32.5480    3.7510   22.9350 H       1  UNL1        0.0280
     41 H         -32.9850    4.0470   24.6350 H       1  UNL1        0.0280
     42 H         -34.2190    4.1950   23.3610 H       1  UNL1        0.0280
     43 C         -31.7810   11.4140   25.3630 C.2     1  UNL1        0.2400
     44 O         -30.6760   11.0930   25.6580 O.2     1  UNL1       -0.2710
     45 N         -32.0450   12.7970   24.8720 N.am    1  UNL1       -0.3550
     46 H         -32.9790   13.0810   24.6140 H       1  UNL1        0.1620
     47 C         -30.9280   13.7610   24.7630 C.3     1  UNL1        0.0130
     48 H         -30.1190   13.4110   25.4030 H       1  UNL1        0.0720
     49 C         -31.3980   15.1230   25.2210 C.3     1  UNL1       -0.0380
     50 H         -30.6180   15.4950   25.8870 H       1  UNL1        0.0360
     51 H         -31.6440   15.6710   24.3120 H       1  UNL1        0.0360
     52 C         -32.6940   15.0600   26.0580 C.3     1  UNL1        0.0180
     53 H         -33.3670   15.7930   25.6150 H       1  UNL1        0.0480
     54 H         -32.9760   14.0080   26.0870 H       1  UNL1        0.0480
     55 C         -32.5050   15.4930   27.5390 C.2     1  UNL1        0.2590
     56 O         -31.7180   14.9370   28.2340 O.2     1  UNL1       -0.2650
     57 O         -33.2930   16.5560   28.0600 O.3     1  UNL1       -0.3170
     58 C         -32.8520   17.8580   27.6620 C.3     1  UNL1        0.0520
     59 H         -32.5660   18.3660   28.5830 H       1  UNL1        0.0820
     60 H         -32.1120   17.6920   26.8790 H       1  UNL1        0.0820
     61 C         -34.0620   18.6050   27.0430 C.ar    1  UNL1       -0.0340
     62 C         -34.7500   18.0490   25.9690 C.ar    1  UNL1       -0.0750
     63 C         -35.8370   18.7210   25.4120 C.ar    1  UNL1       -0.0820
     64 H         -34.4360   17.0870   25.5630 H       1  UNL1        0.0840
     65 C         -36.2350   19.9550   25.9330 C.ar    1  UNL1       -0.0830
     66 H         -36.3750   18.2810   24.5720 H       1  UNL1        0.0830
     67 C         -35.5440   20.5080   27.0020 C.ar    1  UNL1       -0.0820
     68 H         -37.0850   20.4870   25.5040 H       1  UNL1        0.0830
     69 C         -34.4580   19.8390   27.5630 C.ar    1  UNL1       -0.0750
     70 H         -35.8560   21.4720   27.4040 H       1  UNL1        0.0830
     71 H         -33.9210   20.2790   28.4040 H       1  UNL1        0.0840
     72 C         -30.4590   13.8450   23.3120 C.3     1  UNL1       -0.0390
     73 H         -29.5050   13.3180   23.2850 H       1  UNL1        0.0360
     74 H         -31.2970   13.4850   22.7150 H       1  UNL1        0.0360
     75 C         -30.1760   15.3580   22.8670 C.3     1  UNL1       -0.0010
     76 C         -31.2810   15.8260   21.7430 C.3     1  UNL1       -0.0350
     77 C         -30.6260   16.3460   20.6770 C.3     1  UNL1        0.0850
     78 H         -31.7870   14.9540   21.3300 H       1  UNL1        0.0360
     79 H         -31.8640   16.6680   22.1190 H       1  UNL1        0.0360
     80 N         -29.1700   15.9760   20.8310 N.4     1  UNL1       -0.0490
     81 H         -31.0330   15.8330   19.8060 H       1  UNL1        0.0750
     82 H         -30.7290   17.4270   20.7710 H       1  UNL1        0.0750
     83 C         -28.9960   15.4830   22.3580 C.3     1  UNL1        0.1930
     84 H         -29.0080   15.1900   20.2180 H       1  UNL1        0.2800
     85 H         -28.6440   16.8300   20.7070 H       1  UNL1        0.2800
     86 H         -28.5280   16.1310   23.1000 H       1  UNL1        0.1290
     87 H         -30.0270   16.0190   23.7210 H       1  UNL1        0.0460
     88 O         -28.2590   14.2600   22.4000 O.3     1  UNL1       -0.3690
     89 H         -28.7300   13.6200   22.9390 H       1  UNL1        0.2120
     90 C         -33.6800   10.6000   26.7960 C.3     1  UNL1       -0.0350
     91 H         -33.8000   11.6790   26.8890 H       1  UNL1        0.0370
     92 H         -34.5580    9.9560   26.7420 H       1  UNL1        0.0370
     93 C         -32.8710   10.1380   28.0500 C.3     1  UNL1       -0.0590
     94 H         -31.9870    9.6070   27.6960 H       1  UNL1        0.0380
     95 C         -32.3870   11.3450   28.9160 C.3     1  UNL1       -0.0730
     96 H         -31.3180   11.2510   29.1040 H       1  UNL1        0.0280
     97 H         -32.5810   12.2750   28.3840 H       1  UNL1        0.0280
     98 H         -32.9240   11.3490   29.8650 H       1  UNL1        0.0280
     99 C         -33.6850    9.1530   28.8930 C.3     1  UNL1       -0.0730
    100 H         -34.2740    9.7040   29.6270 H       1  UNL1        0.0280
    101 H         -34.3510    8.5830   28.2450 H       1  UNL1        0.0280
    102 H         -33.0090    8.4710   29.4080 H       1  UNL1        0.0280
@<TRIPOS>BOND
     1    81    77    1
     2    84    80    1
     3    77    82    1
     4    77    80    1
     5    77    76    1
     6    85    80    1
     7    80    83    1
     8    78    76    1
     9    36    35    1
    10    76    79    1
    11    76    75    1
    12    38    35    1
    13    83    88    1
    14    83    75    1
    15    83    86    1
    16    88    89    1
    17    35    37    1
    18    35    33    1
    19    74    72    1
    20    75    72    1
    21    75    87    1
    22    40    39    1
    23    34    33    1
    24    73    72    1
    25    72    47    1
    26    42    39    1
    27    33    39    1
    28    33     7    1
    29    39    41    1
    30    51    49    1
    31     5     4    2
    32    66    63    1
    33    46    45    1
    34     2     1    1
    35    47    45    1
    36    47    49    1
    37    47    48    1
    38     7     4    1
    39     7     8    1
    40     7     9    1
    41     4     3   am
    42    45    43   am
    43    49    50    1
    44    49    52    1
    45    43     1    1
    46    43    44    2
    47    63    65   ar
    48    63    62   ar
    49     3     1    1
    50     3     6    1
    51     1    90    1
    52    68    65    1
    53    64    62    1
    54    53    52    1
    55    12     9    1
    56     9    10   am
    57    65    67   ar
    58    62    61   ar
    59    52    54    1
    60    52    55    1
    61    92    90    1
    62    90    91    1
    63    90    93    1
    64    60    58    1
    65    67    70    1
    66    67    69   ar
    67    31    29    1
    68    61    69   ar
    69    61    58    1
    70    10    11    2
    71    10    13    1
    72    32    29    1
    73    55    57    1
    74    55    56    2
    75    69    71    1
    76    58    57    1
    77    58    59    1
    78    94    93    1
    79    29    13    1
    80    29    30    1
    81    93    99    1
    82    93    95    1
    83    18    15    1
    84   101    99    1
    85    13    15    1
    86    13    14    1
    87    97    95    1
    88    15    16   am
    89    99   102    1
    90    99   100    1
    91    95    96    1
    92    95    98    1
    93    16    19    1
    94    16    17    2
    95    22    20    1
    96    19    20   ar
    97    19    24   ar
    98    20    21   ar
    99    26    25    1
   100    24    23   ar
   101    27    25    1
   102    21    23   ar
   103    21    25    1
   104    25    28    1
@<TRIPOS>MOLECULE
crystal_redock_e8_er3_1.pdbqt
 102 104 0 0 0
SMALL
GASTEIGER

@<TRIPOS>ATOM
      1 C         -32.4900    9.8650   24.5800 C.3     1  UNL1        0.0890
      2 H         -32.2710    9.0140   25.2260 H       1  UNL1        0.0870
      3 N         -33.8580   10.2810   24.8520 N.am    1  UNL1       -0.3460
      4 C         -34.5000    9.9650   26.1800 C.2     1  UNL1        0.2410
      5 O         -33.8970    9.3730   27.0130 O.2     1  UNL1       -0.2710
      6 H         -34.3550   10.7820   24.1300 H       1  UNL1        0.1630
      7 C         -35.9150   10.4090   26.4470 C.3     1  UNL1        0.0920
      8 H         -36.0250   10.6390   27.5060 H       1  UNL1        0.0880
      9 N         -36.1890   11.6430   25.7040 N.am    1  UNL1       -0.3460
     10 C         -36.9840   12.6850   26.3070 C.2     1  UNL1        0.2400
     11 O         -37.4110   12.5460   27.3880 O.2     1  UNL1       -0.2710
     12 H         -35.8280   11.7760   24.7700 H       1  UNL1        0.1630
     13 C         -37.2740   13.9950   25.5110 C.3     1  UNL1        0.0860
     14 H         -38.2520   14.4190   25.7400 H       1  UNL1        0.0860
     15 N         -36.2890   14.9980   25.8790 N.am    1  UNL1       -0.3430
     16 C         -36.6420   16.0330   26.8530 C.2     1  UNL1        0.2730
     17 O         -37.7220   16.0500   27.3340 O.2     1  UNL1       -0.2660
     18 H         -35.3700   14.9770   25.4610 H       1  UNL1        0.1630
     19 C         -35.6100   17.0990   27.2520 C.ar    1  UNL1        0.1540
     20 C         -34.5580   17.6300   26.4410 C.ar    1  UNL1       -0.0170
     21 C         -33.9010   18.5700   27.2660 C.ar    1  UNL1        0.0770
     22 H         -34.3090   17.3730   25.4110 H       1  UNL1        0.0910
     23 O         -34.5130   18.5710   28.4140 O.2     1  UNL1       -0.2180
     24 N         -35.5140   17.7210   28.4310 N.ar    1  UNL1       -0.1230
     25 C         -32.7000   19.4240   26.8820 C.3     1  UNL1       -0.0290
     26 H         -31.8570   18.7770   26.6420 H       1  UNL1        0.0360
     27 H         -32.9500   20.0320   26.0130 H       1  UNL1        0.0360
     28 H         -32.4340   20.0730   27.7160 H       1  UNL1        0.0360
     29 C         -37.1990   13.7140   24.0320 C.3     1  UNL1       -0.0490
     30 H         -36.2640   14.1100   23.6340 H       1  UNL1        0.0300
     31 H         -37.2390   12.6380   23.8640 H       1  UNL1        0.0300
     32 H         -38.0390   14.1920   23.5280 H       1  UNL1        0.0300
     33 C         -36.9030    9.2980   25.9830 C.3     1  UNL1       -0.0330
     34 H         -36.3490    8.3590   25.9500 H       1  UNL1        0.0420
     35 C         -38.0720    9.1160   27.0000 C.3     1  UNL1       -0.0710
     36 H         -38.9520    9.6490   26.6410 H       1  UNL1        0.0280
     37 H         -38.3050    8.0570   27.1010 H       1  UNL1        0.0280
     38 H         -37.7760    9.5180   27.9690 H       1  UNL1        0.0280
     39 C         -37.4420    9.5930   24.5470 C.3     1  UNL1       -0.0710
     40 H         -37.2960   10.6470   24.3130 H       1  UNL1        0.0280
     41 H         -36.9010    8.9820   23.8230 H       1  UNL1        0.0280
     42 H         -38.5040    9.3530   24.5010 H       1  UNL1        0.0280
     43 C         -31.5430   11.0680   24.8530 C.2     1  UNL1        0.2400
     44 O         -30.8220   11.0510   25.7970 O.2     1  UNL1       -0.2710
     45 N         -31.5280   12.2390   23.9300 N.am    1  UNL1       -0.3550
     46 H         -32.1320   12.2630   23.1210 H       1  UNL1        0.1620
     47 C         -30.6210   13.3740   24.2020 C.3     1  UNL1        0.0130
     48 H         -29.9300   13.0710   24.9880 H       1  UNL1        0.0720
     49 C         -31.4330   14.5650   24.6590 C.3     1  UNL1       -0.0380
     50 H         -30.8060   15.4370   24.4770 H       1  UNL1        0.0360
     51 H         -32.3980   14.4720   24.1590 H       1  UNL1        0.0360
     52 C         -31.7240   14.5450   26.1760 C.3     1  UNL1        0.0180
     53 H         -31.0270   13.8230   26.6000 H       1  UNL1        0.0480
     54 H         -31.6930   15.5870   26.4960 H       1  UNL1        0.0480
     55 C         -33.1460   14.0290   26.5340 C.2     1  UNL1        0.2590
     56 O         -33.7380   13.3230   25.7840 O.2     1  UNL1       -0.2650
     57 O         -33.7390   14.4220   27.7650 O.3     1  UNL1       -0.3170
     58 C         -32.8020   14.8830   28.7430 C.3     1  UNL1        0.0520
     59 H         -31.9640   15.2910   28.1780 H       1  UNL1        0.0820
     60 H         -33.3690   15.5250   29.4160 H       1  UNL1        0.0820
     61 C         -32.3020   13.6520   29.5450 C.ar    1  UNL1       -0.0340
     62 C         -33.1910   12.6410   29.8960 C.ar    1  UNL1       -0.0750
     63 C         -32.7420   11.5350   30.6160 C.ar    1  UNL1       -0.0820
     64 H         -34.2390   12.7150   29.6070 H       1  UNL1        0.0840
     65 C         -31.3970   11.4440   30.9880 C.ar    1  UNL1       -0.0830
     66 H         -33.4400   10.7440   30.8880 H       1  UNL1        0.0830
     67 C         -30.5150   12.4570   30.6380 C.ar    1  UNL1       -0.0820
     68 H         -31.0380   10.5820   31.5510 H       1  UNL1        0.0830
     69 C         -30.9590   13.5630   29.9170 C.ar    1  UNL1       -0.0750
     70 H         -29.4670   12.3830   30.9320 H       1  UNL1        0.0830
     71 H         -30.2590   14.3540   29.6450 H       1  UNL1        0.0840
     72 C         -29.8540   13.7380   22.9320 C.3     1  UNL1       -0.0390
     73 H         -28.8260   13.9120   23.2540 H       1  UNL1        0.0360
     74 H         -30.0740   12.9420   22.2220 H       1  UNL1        0.0360
     75 C         -30.3860   15.1060   22.2900 C.3     1  UNL1       -0.0010
     76 C         -31.0860   14.8050   20.8330 C.3     1  UNL1       -0.0350
     77 C         -30.5480   15.6370   19.9090 C.3     1  UNL1        0.0850
     78 H         -30.8020   13.8140   20.4790 H       1  UNL1        0.0360
     79 H         -32.1370   15.0950   20.8560 H       1  UNL1        0.0360
     80 N         -29.3170   16.2500   20.5320 N.4     1  UNL1       -0.0490
     81 H         -30.2460   14.9960   19.0810 H       1  UNL1        0.0750
     82 H         -31.2920   16.4170   19.7520 H       1  UNL1        0.0750
     83 C         -29.4210   15.9460   22.1140 C.3     1  UNL1        0.1930
     84 H         -28.5260   15.7450   20.1590 H       1  UNL1        0.2800
     85 H         -29.3920   17.2470   20.3900 H       1  UNL1        0.2800
     86 H         -29.7130   16.7320   22.8110 H       1  UNL1        0.1290
     87 H         -30.9580   15.7010   23.0010 H       1  UNL1        0.0460
     88 O         -28.1750   15.4460   22.6030 O.3     1  UNL1       -0.3690
     89 H         -27.5510   16.1710   22.6880 H       1  UNL1        0.2120
     90 C         -32.3800    9.4460   23.1230 C.3     1  UNL1       -0.0350
     91 H         -33.2100    9.9390   22.6170 H       1  UNL1        0.0370
     92 H         -31.3530    9.6740   22.8340 H       1  UNL1        0.0370
     93 C         -32.5730    7.9130   22.8940 C.3     1  UNL1       -0.0590
     94 H         -33.6440    7.7120   22.8900 H       1  UNL1        0.0380
     95 C         -31.9940    7.4450   21.5210 C.3     1  UNL1       -0.0730
     96 H         -32.8080    7.3150   20.8090 H       1  UNL1        0.0280
     97 H         -31.2990    8.1950   21.1440 H       1  UNL1        0.0280
     98 H         -31.4700    6.4980   21.6520 H       1  UNL1        0.0280
     99 C         -31.9640    7.1080   24.0450 C.3     1  UNL1       -0.0730
    100 H         -32.1950    6.0510   23.9120 H       1  UNL1        0.0280
    101 H         -30.8820    7.2450   24.0530 H       1  UNL1        0.0280
    102 H         -32.3790    7.4550   24.9910 H       1  UNL1        0.0280
@<TRIPOS>BOND
     1    81    77    1
     2    82    77    1
     3    77    80    1
     4    77    76    1
     5    84    80    1
     6    85    80    1
     7    78    76    1
     8    80    83    1
     9    96    95    1
    10    76    79    1
    11    76    75    1
    12    97    95    1
    13    95    98    1
    14    95    93    1
    15    83    75    1
    16    83    88    1
    17    83    86    1
    18    74    72    1
    19    75    72    1
    20    75    87    1
    21    88    89    1
    22    91    90    1
    23    92    90    1
    24    94    93    1
    25    93    90    1
    26    93    99    1
    27    72    73    1
    28    72    47    1
    29    46    45    1
    30    90     1    1
    31    32    29    1
    32    30    29    1
    33    41    39    1
    34    31    29    1
    35   100    99    1
    36    45    47    1
    37    45    43   am
    38    29    13    1
    39    99   101    1
    40    99   102    1
    41     6     3    1
    42    51    49    1
    43    47    49    1
    44    47    48    1
    45    40    39    1
    46    50    49    1
    47    42    39    1
    48    39    33    1
    49     1     3    1
    50     1    43    1
    51     1     2    1
    52    49    52    1
    53    12     9    1
    54     3     4   am
    55    43    44    2
    56    22    20    1
    57    18    15    1
    58    13    14    1
    59    13    15    1
    60    13    10    1
    61     9    10   am
    62     9     7    1
    63    56    55    2
    64    15    16   am
    65    34    33    1
    66    33     7    1
    67    33    35    1
    68    27    25    1
    69    52    54    1
    70    52    55    1
    71    52    53    1
    72     4     7    1
    73     4     5    2
    74    10    11    2
    75    20    19   ar
    76    20    21   ar
    77     7     8    1
    78    55    57    1
    79    36    35    1
    80    26    25    1
    81    16    19    1
    82    16    17    2
    83    25    21    1
    84    25    28    1
    85    35    37    1
    86    35    38    1
    87    19    24   ar
    88    21    23   ar
    89    57    58    1
    90    59    58    1
    91    23    24   ar
    92    58    60    1
    93    58    61    1
    94    61    62   ar
    95    61    69   ar
    96    64    62    1
    97    71    69    1
    98    62    63   ar
    99    69    67   ar
   100    63    66    1
   101    63    65   ar
   102    67    70    1
   103    67    65   ar
   104    65    68    1
@<TRIPOS>MOLECULE
crystal_redock_e8_er3_1.pdbqt
 102 104 0 0 0
SMALL
GASTEIGER

@<TRIPOS>ATOM
      1 C         -32.4990    9.5350   25.5080 C.3     1  UNL1        0.0890
      2 H         -31.8410    8.6810   25.6670 H       1  UNL1        0.0870
      3 N         -33.5130    9.5080   26.5510 N.am    1  UNL1       -0.3460
      4 C         -33.5280    8.3970   27.5710 C.2     1  UNL1        0.2410
      5 O         -32.7150    7.5340   27.5290 O.2     1  UNL1       -0.2710
      6 H         -34.1980   10.2510   26.5680 H       1  UNL1        0.1630
      7 C         -34.5810    8.3890   28.6470 C.3     1  UNL1        0.0920
      8 H         -34.4360    7.5160   29.2840 H       1  UNL1        0.0880
      9 N         -34.4250    9.5750   29.4950 N.am    1  UNL1       -0.3460
     10 C         -34.2870    9.4270   30.9230 C.2     1  UNL1        0.2400
     11 O         -34.3010    8.3610   31.4070 O.2     1  UNL1       -0.2710
     12 H         -34.4120   10.5010   29.0920 H       1  UNL1        0.1630
     13 C         -34.1230   10.6930   31.8200 C.3     1  UNL1        0.0860
     14 H         -33.3490   10.5750   32.5780 H       1  UNL1        0.0860
     15 N         -33.7220   11.8130   30.9850 N.am    1  UNL1       -0.3430
     16 C         -32.3080   11.9890   30.6440 C.2     1  UNL1        0.2730
     17 O         -31.5020   11.2250   31.0490 O.2     1  UNL1       -0.2660
     18 H         -34.4170   12.4620   30.6460 H       1  UNL1        0.1630
     19 C         -31.8700   13.1680   29.7620 C.ar    1  UNL1        0.1540
     20 C         -32.6170   14.3530   29.4680 C.ar    1  UNL1       -0.0170
     21 C         -31.7770   15.1110   28.6220 C.ar    1  UNL1        0.0770
     22 H         -33.6140   14.6210   29.8160 H       1  UNL1        0.0910
     23 O         -30.6790   14.4330   28.4570 O.2     1  UNL1       -0.2180
     24 N         -30.7100   13.2950   29.1120 N.ar    1  UNL1       -0.1230
     25 C         -32.0980   16.4710   28.0180 C.3     1  UNL1       -0.0290
     26 H         -31.2030   16.8830   27.5530 H       1  UNL1        0.0360
     27 H         -32.8790   16.3590   27.2650 H       1  UNL1        0.0360
     28 H         -32.4440   17.1450   28.8010 H       1  UNL1        0.0360
     29 C         -35.4320   11.0000   32.5030 C.3     1  UNL1       -0.0490
     30 H         -36.2100   10.3490   32.1060 H       1  UNL1        0.0300
     31 H         -35.3290   10.8330   33.5750 H       1  UNL1        0.0300
     32 H         -35.7010   12.0410   32.3210 H       1  UNL1        0.0300
     33 C         -35.9930    8.4060   27.9910 C.3     1  UNL1       -0.0330
     34 H         -36.0420    9.2780   27.3390 H       1  UNL1        0.0420
     35 C         -36.2230    7.1430   27.1040 C.3     1  UNL1       -0.0710
     36 H         -37.2910    6.9330   27.0410 H       1  UNL1        0.0280
     37 H         -35.8290    7.3250   26.1040 H       1  UNL1        0.0280
     38 H         -35.7110    6.2900   27.5470 H       1  UNL1        0.0280
     39 C         -37.1110    8.5490   29.0740 C.3     1  UNL1       -0.0710
     40 H         -37.1410    7.6470   29.6860 H       1  UNL1        0.0280
     41 H         -36.8970    9.4110   29.7060 H       1  UNL1        0.0280
     42 H         -38.0750    8.6890   28.5840 H       1  UNL1        0.0280
     43 C         -31.7360   10.8880   25.5930 C.2     1  UNL1        0.2400
     44 O         -30.9340   11.0610   26.4530 O.2     1  UNL1       -0.2710
     45 N         -31.9990   11.9660   24.5970 N.am    1  UNL1       -0.3550
     46 H         -32.6750   11.8290   23.8600 H       1  UNL1        0.1620
     47 C         -31.2640   13.2460   24.6910 C.3     1  UNL1        0.0130
     48 H         -30.5720   13.1740   25.5300 H       1  UNL1        0.0720
     49 C         -32.2480   14.3700   24.9270 C.3     1  UNL1       -0.0380
     50 H         -31.7180   15.1010   25.5380 H       1  UNL1        0.0360
     51 H         -32.6170   14.6490   23.9400 H       1  UNL1        0.0360
     52 C         -33.4800   13.9270   25.7450 C.3     1  UNL1        0.0180
     53 H         -33.7720   12.9600   25.3380 H       1  UNL1        0.0480
     54 H         -33.1850   14.0120   26.7920 H       1  UNL1        0.0480
     55 C         -34.7140   14.8560   25.5710 C.2     1  UNL1        0.2590
     56 O         -35.2470   14.9580   24.5140 O.2     1  UNL1       -0.2650
     57 O         -35.1930   15.5940   26.6880 O.3     1  UNL1       -0.3170
     58 C         -35.9100   16.7810   26.3380 C.3     1  UNL1        0.0520
     59 H         -36.0970   16.7070   25.2660 H       1  UNL1        0.0820
     60 H         -36.7460   16.8380   27.0340 H       1  UNL1        0.0820
     61 C         -34.9780   17.9960   26.5910 C.ar    1  UNL1       -0.0340
     62 C         -35.0180   18.6630   27.8110 C.ar    1  UNL1       -0.0750
     63 C         -34.1810   19.7540   28.0380 C.ar    1  UNL1       -0.0820
     64 H         -35.7060   18.3310   28.5890 H       1  UNL1        0.0840
     65 C         -33.3020   20.1800   27.0390 C.ar    1  UNL1       -0.0830
     66 H         -34.2140   20.2740   28.9960 H       1  UNL1        0.0830
     67 C         -33.2680   19.5130   25.8220 C.ar    1  UNL1       -0.0820
     68 H         -32.6440   21.0310   27.2080 H       1  UNL1        0.0830
     69 C         -34.1010   18.4200   25.5910 C.ar    1  UNL1       -0.0750
     70 H         -32.5820   19.8490   25.0430 H       1  UNL1        0.0830
     71 H         -34.0670   17.9010   24.6320 H       1  UNL1        0.0840
     72 C         -30.5010   13.4990   23.3930 C.3     1  UNL1       -0.0390
     73 H         -29.4680   13.2200   23.6050 H       1  UNL1        0.0360
     74 H         -31.0600   12.9720   22.6200 H       1  UNL1        0.0360
     75 C         -30.4990   15.0520   23.0000 C.3     1  UNL1       -0.0010
     76 C         -31.3000   15.2710   21.5810 C.3     1  UNL1       -0.0350
     77 C         -30.5140   15.9890   20.7430 C.3     1  UNL1        0.0850
     78 H         -31.4160   14.3180   21.0660 H       1  UNL1        0.0360
     79 H         -32.1640   15.9170   21.7350 H       1  UNL1        0.0360
     80 N         -29.1270   15.9990   21.3390 N.4     1  UNL1       -0.0490
     81 H         -30.4960   15.4280   19.8090 H       1  UNL1        0.0750
     82 H         -30.9160   17.0020   20.7630 H       1  UNL1        0.0750
     83 C         -29.2950   15.4990   22.8640 C.3     1  UNL1        0.1930
     84 H         -28.5920   15.3090   20.8310 H       1  UNL1        0.2800
     85 H         -28.8270   16.9640   21.3480 H       1  UNL1        0.2800
     86 H         -29.2540   16.2110   23.6880 H       1  UNL1        0.1290
     87 H         -30.7880   15.6900   23.8360 H       1  UNL1        0.0460
     88 O         -28.3140   14.5060   23.1680 O.3     1  UNL1       -0.3690
     89 H         -27.5220   14.6690   22.6520 H       1  UNL1        0.2120
     90 C         -33.1780    9.4160   24.1530 C.3     1  UNL1       -0.0350
     91 H         -33.6440   10.3850   23.9770 H       1  UNL1        0.0370
     92 H         -32.4070    9.0510   23.4740 H       1  UNL1        0.0370
     93 C         -34.3300    8.3610   24.1200 C.3     1  UNL1       -0.0590
     94 H         -34.8520    8.4110   25.0750 H       1  UNL1        0.0380
     95 C         -35.3700    8.6590   22.9920 C.3     1  UNL1       -0.0730
     96 H         -35.6140    7.7350   22.4690 H       1  UNL1        0.0280
     97 H         -36.2750    9.0760   23.4340 H       1  UNL1        0.0280
     98 H         -34.9470    9.3750   22.2880 H       1  UNL1        0.0280
     99 C         -33.7690    6.9440   23.9820 C.3     1  UNL1       -0.0730
    100 H         -33.6190    6.5140   24.9730 H       1  UNL1        0.0280
    101 H         -34.4710    6.3270   23.4210 H       1  UNL1        0.0280
    102 H         -32.8160    6.9790   23.4540 H       1  UNL1        0.0280
@<TRIPOS>BOND
     1    81    77    1
     2    77    82    1
     3    77    80    1
     4    77    76    1
     5    84    80    1
     6    78    76    1
     7    80    85    1
     8    80    83    1
     9    76    79    1
    10    76    75    1
    11    98    95    1
    12    96    95    1
    13    74    72    1
    14    89    88    1
    15    83    75    1
    16    83    88    1
    17    83    86    1
    18    95    97    1
    19    95    93    1
    20    75    72    1
    21    75    87    1
    22    72    73    1
    23    72    47    1
    24   101    99    1
    25   102    99    1
    26    92    90    1
    27    46    45    1
    28    51    49    1
    29    91    90    1
    30    99    93    1
    31    99   100    1
    32    93    90    1
    33    93    94    1
    34    90     1    1
    35    56    55    2
    36    45    47    1
    37    45    43   am
    38    71    69    1
    39    47    49    1
    40    47    48    1
    41    49    50    1
    42    49    52    1
    43    70    67    1
    44    59    58    1
    45    53    52    1
    46     1    43    1
    47     1     2    1
    48     1     3    1
    49    55    52    1
    50    55    57    1
    51    69    67   ar
    52    69    61   ar
    53    43    44    2
    54    52    54    1
    55    67    65   ar
    56    37    35    1
    57    58    61    1
    58    58    57    1
    59    58    60    1
    60     3     6    1
    61     3     4   am
    62    61    62   ar
    63    65    68    1
    64    65    63   ar
    65    36    35    1
    66    35    38    1
    67    35    33    1
    68    27    25    1
    69    34    33    1
    70     5     4    2
    71    26    25    1
    72     4     7    1
    73    62    63   ar
    74    62    64    1
    75    33     7    1
    76    33    39    1
    77    25    21    1
    78    25    28    1
    79    63    66    1
    80    23    21   ar
    81    23    24   ar
    82    42    39    1
    83    21    20   ar
    84     7     8    1
    85     7     9    1
    86    39    40    1
    87    39    41    1
    88    12     9    1
    89    24    19   ar
    90    20    19   ar
    91    20    22    1
    92     9    10   am
    93    19    16    1
    94    16    15   am
    95    16    17    2
    96    18    15    1
    97    10    11    2
    98    10    13    1
    99    15    13    1
   100    13    29    1
   101    13    14    1
   102    30    29    1
   103    32    29    1
   104    29    31    1
@<TRIPOS>MOLECULE
crystal_redock_e8_er3_1.pdbqt
 102 104 0 0 0
SMALL
GASTEIGER

@<TRIPOS>ATOM
      1 C         -33.0940   11.8370   28.4420 C.3     1  UNL1        0.0890
      2 H         -33.2980   12.1900   29.4530 H       1  UNL1        0.0870
      3 N         -33.6760   10.5090   28.3160 N.am    1  UNL1       -0.3460
      4 C         -34.2220    9.7990   29.5280 C.2     1  UNL1        0.2410
      5 O         -34.1800   10.3140   30.5960 O.2     1  UNL1       -0.2710
      6 H         -33.7000   10.0870   27.3980 H       1  UNL1        0.1630
      7 C         -34.8260    8.4270   29.3780 C.3     1  UNL1        0.0920
      8 H         -35.7280    8.4970   28.7700 H       1  UNL1        0.0880
      9 N         -33.8880    7.5560   28.6630 N.am    1  UNL1       -0.3460
     10 C         -34.1440    7.1950   27.2900 C.2     1  UNL1        0.2400
     11 O         -35.1000    7.5960   26.7460 O.2     1  UNL1       -0.2710
     12 H         -33.0600    7.2010   29.1190 H       1  UNL1        0.1630
     13 C         -33.1440    6.2650   26.5350 C.3     1  UNL1        0.0860
     14 H         -33.6390    5.6000   25.8280 H       1  UNL1        0.0860
     15 N         -32.2280    7.0860   25.7620 N.am    1  UNL1       -0.3430
     16 C         -32.5450    7.4040   24.3680 C.2     1  UNL1        0.2730
     17 O         -33.5380    6.9920   23.8770 O.2     1  UNL1       -0.2660
     18 H         -31.3800    7.4320   26.1890 H       1  UNL1        0.1630
     19 C         -31.5860    8.2730   23.5390 C.ar    1  UNL1        0.1540
     20 C         -31.3840    9.6860   23.6500 C.ar    1  UNL1       -0.0170
     21 C         -30.4090    9.9910   22.6750 C.ar    1  UNL1        0.0770
     22 H         -31.8700   10.3820   24.3340 H       1  UNL1        0.0910
     23 O         -30.0930    8.8780   22.0800 O.2     1  UNL1       -0.2180
     24 N         -30.7670    7.8620   22.5670 N.ar    1  UNL1       -0.1230
     25 C         -29.8330   11.3690   22.3760 C.3     1  UNL1       -0.0290
     26 H         -30.0430   11.6340   21.3400 H       1  UNL1        0.0360
     27 H         -30.2910   12.1050   23.0380 H       1  UNL1        0.0360
     28 H         -28.7560   11.3560   22.5370 H       1  UNL1        0.0360
     29 C         -32.3770    5.4330   27.5310 C.3     1  UNL1       -0.0490
     30 H         -31.4000    5.8830   27.7050 H       1  UNL1        0.0300
     31 H         -32.9290    5.3900   28.4700 H       1  UNL1        0.0300
     32 H         -32.2480    4.4240   27.1390 H       1  UNL1        0.0300
     33 C         -35.1130    7.8300   30.7860 C.3     1  UNL1       -0.0330
     34 H         -34.3940    8.2640   31.4810 H       1  UNL1        0.0420
     35 C         -36.5400    8.2160   31.2870 C.3     1  UNL1       -0.0710
     36 H         -37.2620    8.0540   30.4860 H       1  UNL1        0.0280
     37 H         -36.8040    7.5970   32.1440 H       1  UNL1        0.0280
     38 H         -36.5510    9.2660   31.5790 H       1  UNL1        0.0280
     39 C         -34.9120    6.2800   30.7890 C.3     1  UNL1       -0.0710
     40 H         -35.7880    5.7990   30.3530 H       1  UNL1        0.0280
     41 H         -34.0290    6.0270   30.2010 H       1  UNL1        0.0280
     42 H         -34.7780    5.9330   31.8130 H       1  UNL1        0.0280
     43 C         -33.7240   12.7600   27.3600 C.2     1  UNL1        0.2400
     44 O         -33.6940   12.4360   26.2170 O.2     1  UNL1       -0.2710
     45 N         -34.3740   14.0440   27.7490 N.am    1  UNL1       -0.3550
     46 H         -34.4100   14.3270   28.7180 H       1  UNL1        0.1620
     47 C         -34.9700   14.9090   26.7080 C.3     1  UNL1        0.0130
     48 H         -34.5500   14.6150   25.7470 H       1  UNL1        0.0720
     49 C         -34.6280   16.3520   27.0020 C.3     1  UNL1       -0.0380
     50 H         -34.8100   16.8930   26.0730 H       1  UNL1        0.0360
     51 H         -35.1870   16.6090   27.9020 H       1  UNL1        0.0360
     52 C         -33.1350   16.5570   27.3410 C.3     1  UNL1        0.0180
     53 H         -33.1190   17.0610   28.3070 H       1  UNL1        0.0480
     54 H         -32.6700   15.5770   27.2300 H       1  UNL1        0.0480
     55 C         -32.3920   17.4990   26.3530 C.2     1  UNL1        0.2590
     56 O         -32.1090   18.6070   26.6750 O.2     1  UNL1       -0.2650
     57 O         -32.0650   17.0260   25.0520 O.3     1  UNL1       -0.3170
     58 C         -31.2190   15.8720   25.0480 C.3     1  UNL1        0.0520
     59 H         -30.3890   16.1130   25.7140 H       1  UNL1        0.0820
     60 H         -31.8700   15.0280   25.2720 H       1  UNL1        0.0820
     61 C         -30.6600   15.6930   23.6120 C.ar    1  UNL1       -0.0340
     62 C         -31.3990   16.1310   22.5170 C.ar    1  UNL1       -0.0750
     63 C         -30.8980   15.9700   21.2260 C.ar    1  UNL1       -0.0820
     64 H         -32.3720   16.5990   22.6700 H       1  UNL1        0.0840
     65 C         -29.6520   15.3660   21.0320 C.ar    1  UNL1       -0.0830
     66 H         -31.4790   16.3150   20.3710 H       1  UNL1        0.0830
     67 C         -28.9200   14.9280   22.1270 C.ar    1  UNL1       -0.0820
     68 H         -29.2530   15.2370   20.0260 H       1  UNL1        0.0830
     69 C         -29.4160   15.0890   23.4190 C.ar    1  UNL1       -0.0750
     70 H         -27.9500   14.4550   21.9720 H       1  UNL1        0.0830
     71 H         -28.8350   14.7430   24.2740 H       1  UNL1        0.0840
     72 C         -36.4870   14.7360   26.7000 C.3     1  UNL1       -0.0390
     73 H         -36.7320   14.2700   27.6550 H       1  UNL1        0.0360
     74 H         -36.8900   15.7190   26.4550 H       1  UNL1        0.0360
     75 C         -36.9630   13.7290   25.5480 C.3     1  UNL1       -0.0010
     76 C         -38.2130   14.3890   24.7080 C.3     1  UNL1       -0.0350
     77 C         -39.2260   13.4910   24.6560 C.3     1  UNL1        0.0850
     78 H         -38.6400   15.2220   25.2670 H       1  UNL1        0.0360
     79 H         -37.9340   14.5200   23.6630 H       1  UNL1        0.0360
     80 N         -38.9080   12.4080   25.6590 N.4     1  UNL1       -0.0490
     81 H         -40.1120   14.0330   24.9870 H       1  UNL1        0.0750
     82 H         -39.1880   13.0680   23.6530 H       1  UNL1        0.0750
     83 C         -37.3520   12.6020   26.0430 C.3     1  UNL1        0.1930
     84 H         -39.4670   12.6020   26.4770 H       1  UNL1        0.2800
     85 H         -39.0120   11.5290   25.1720 H       1  UNL1        0.2800
     86 H         -36.5930   11.9340   25.6350 H       1  UNL1        0.1290
     87 H         -36.1250   13.3420   24.9670 H       1  UNL1        0.0460
     88 O         -37.1840   12.5500   27.4610 O.3     1  UNL1       -0.3690
     89 H         -37.9700   12.8960   27.8890 H       1  UNL1        0.2120
     90 C         -31.5920   11.7440   28.2230 C.3     1  UNL1       -0.0350
     91 H         -31.3390   10.7000   28.4030 H       1  UNL1        0.0370
     92 H         -31.4160   12.1870   27.2420 H       1  UNL1        0.0370
     93 C         -30.7570   12.5820   29.2420 C.3     1  UNL1       -0.0590
     94 H         -29.7920   12.0900   29.3630 H       1  UNL1        0.0380
     95 C         -30.4900   14.0350   28.7330 C.3     1  UNL1       -0.0730
     96 H         -30.2530   14.6790   29.5780 H       1  UNL1        0.0280
     97 H         -29.6520   14.0270   28.0360 H       1  UNL1        0.0280
     98 H         -31.3790   14.4110   28.2270 H       1  UNL1        0.0280
     99 C         -31.4320   12.6030   30.6160 C.3     1  UNL1       -0.0730
    100 H         -31.0930   13.4760   31.1750 H       1  UNL1        0.0280
    101 H         -32.5140   12.6500   30.4890 H       1  UNL1        0.0280
    102 H         -31.1710   11.6970   31.1630 H       1  UNL1        0.0280
@<TRIPOS>BOND
     1    68    65    1
     2    66    63    1
     3    65    63   ar
     4    65    67   ar
     5    63    62   ar
     6    26    25    1
     7    70    67    1
     8    23    24   ar
     9    23    21   ar
    10    67    69   ar
    11    25    28    1
    12    25    21    1
    13    25    27    1
    14    62    64    1
    15    62    61   ar
    16    24    19   ar
    17    21    20   ar
    18    69    61   ar
    19    69    71    1
    20    19    20   ar
    21    19    16    1
    22    61    58    1
    23    20    22    1
    24    82    77    1
    25    79    76    1
    26    17    16    2
    27    16    15   am
    28    77    76    1
    29    77    81    1
    30    77    80    1
    31    76    78    1
    32    76    75    1
    33    87    75    1
    34    58    57    1
    35    58    60    1
    36    58    59    1
    37    57    55    1
    38    85    80    1
    39    75    83    1
    40    75    72    1
    41    86    83    1
    42    80    83    1
    43    80    84    1
    44    48    47    1
    45    15    18    1
    46    15    13    1
    47    14    13    1
    48    83    88    1
    49    50    49    1
    50    44    43    2
    51    55    56    2
    52    55    52    1
    53    74    72    1
    54    13    10    1
    55    13    29    1
    56    72    47    1
    57    72    73    1
    58    47    49    1
    59    47    45    1
    60    11    10    2
    61    49    52    1
    62    49    51    1
    63    32    29    1
    64    54    52    1
    65    92    90    1
    66    10     9   am
    67    52    53    1
    68    43    45   am
    69    43     1    1
    70     6     3    1
    71    88    89    1
    72    29    30    1
    73    29    31    1
    74    45    46    1
    75    97    95    1
    76    90    91    1
    77    90     1    1
    78    90    93    1
    79    98    95    1
    80     3     1    1
    81     3     4   am
    82     1     2    1
    83     9    12    1
    84     9     7    1
    85    95    93    1
    86    95    96    1
    87     8     7    1
    88    93    94    1
    89    93    99    1
    90     7     4    1
    91     7    33    1
    92     4     5    2
    93    41    39    1
    94    40    39    1
    95    36    35    1
    96   101    99    1
    97    99   102    1
    98    99   100    1
    99    33    39    1
   100    33    35    1
   101    33    34    1
   102    39    42    1
   103    35    38    1
   104    35    37    1
@<TRIPOS>MOLECULE
crystal_redock_e8_er3_1.pdbqt
 102 104 0 0 0
SMALL
GASTEIGER

@<TRIPOS>ATOM
      1 C         -32.0350    9.8260   24.9240 C.3     1  UNL1        0.0890
      2 H         -31.5060    8.9280   25.2440 H       1  UNL1        0.0870
      3 N         -33.4360    9.6600   25.2790 N.am    1  UNL1       -0.3460
      4 C         -34.0410    8.2820   25.3700 C.2     1  UNL1        0.2410
      5 O         -33.3800    7.3210   25.1500 O.2     1  UNL1       -0.2710
      6 H         -33.9820   10.4910   25.4600 H       1  UNL1        0.1630
      7 C         -35.4920    8.1280   25.7430 C.3     1  UNL1        0.0920
      8 H         -35.6490    7.1370   26.1690 H       1  UNL1        0.0880
      9 N         -35.8350    9.1050   26.7810 N.am    1  UNL1       -0.3460
     10 C         -35.6830    8.7610   28.1730 C.2     1  UNL1        0.2400
     11 O         -35.2860    7.7030   28.4770 O.2     1  UNL1       -0.2710
     12 H         -36.1810   10.0220   26.5340 H       1  UNL1        0.1630
     13 C         -36.0530    9.8050   29.2730 C.3     1  UNL1        0.0860
     14 H         -36.1580    9.3570   30.2610 H       1  UNL1        0.0860
     15 N         -34.9850   10.7850   29.3720 N.am    1  UNL1       -0.3430
     16 C         -33.8600   10.5370   30.2770 C.2     1  UNL1        0.2730
     17 O         -33.8260    9.5480   30.9220 O.2     1  UNL1       -0.2660
     18 H         -35.0230   11.6290   28.8180 H       1  UNL1        0.1630
     19 C         -32.7230   11.5640   30.3900 C.ar    1  UNL1        0.1540
     20 C         -32.6320   12.8310   29.7300 C.ar    1  UNL1       -0.0170
     21 C         -31.4070   13.3810   30.1670 C.ar    1  UNL1        0.0770
     22 H         -33.3460   13.2810   29.0410 H       1  UNL1        0.0910
     23 O         -30.8660   12.5240   30.9830 O.2     1  UNL1       -0.2180
     24 N         -31.6140   11.4560   31.1280 N.ar    1  UNL1       -0.1230
     25 C         -30.8280   14.7300   29.7590 C.3     1  UNL1       -0.0290
     26 H         -29.8560   14.8660   30.2320 H       1  UNL1        0.0360
     27 H         -30.7120   14.7620   28.6760 H       1  UNL1        0.0360
     28 H         -31.5010   15.5250   30.0760 H       1  UNL1        0.0360
     29 C         -37.3470   10.4860   28.9070 C.3     1  UNL1       -0.0490
     30 H         -37.3740   10.6610   27.8320 H       1  UNL1        0.0300
     31 H         -38.1850    9.8510   29.1930 H       1  UNL1        0.0300
     32 H         -37.4170   11.4390   29.4320 H       1  UNL1        0.0300
     33 C         -36.3790    8.3740   24.4880 C.3     1  UNL1       -0.0330
     34 H         -35.7240    8.3800   23.6180 H       1  UNL1        0.0420
     35 C         -37.4130    7.2220   24.2890 C.3     1  UNL1       -0.0710
     36 H         -38.4190    7.6010   24.4660 H       1  UNL1        0.0280
     37 H         -37.3420    6.8430   23.2690 H       1  UNL1        0.0280
     38 H         -37.2000    6.4170   24.9920 H       1  UNL1        0.0280
     39 C         -37.0890    9.7640   24.5690 C.3     1  UNL1       -0.0710
     40 H         -36.6250   10.4500   23.8610 H       1  UNL1        0.0280
     41 H         -38.1450    9.6470   24.3240 H       1  UNL1        0.0280
     42 H         -36.9930   10.1630   25.5790 H       1  UNL1        0.0280
     43 C         -31.4950   11.1060   25.6250 C.2     1  UNL1        0.2400
     44 O         -31.0010   11.0250   26.7030 O.2     1  UNL1       -0.2710
     45 N         -31.5850   12.4310   24.9480 N.am    1  UNL1       -0.3550
     46 H         -31.9970   12.5110   24.0300 H       1  UNL1        0.1620
     47 C         -31.0650   13.6370   25.6270 C.3     1  UNL1        0.0130
     48 H         -30.2900   13.3220   26.3250 H       1  UNL1        0.0720
     49 C         -32.1910   14.3130   26.3760 C.3     1  UNL1       -0.0380
     50 H         -32.1730   13.8890   27.3810 H       1  UNL1        0.0360
     51 H         -32.0400   15.3830   26.2330 H       1  UNL1        0.0360
     52 C         -33.5820   13.9860   25.7900 C.3     1  UNL1        0.0180
     53 H         -33.7700   14.7460   25.0330 H       1  UNL1        0.0480
     54 H         -33.5440   12.9330   25.5080 H       1  UNL1        0.0480
     55 C         -34.7400   14.1110   26.8190 C.2     1  UNL1        0.2590
     56 O         -35.2980   13.1420   27.2200 O.2     1  UNL1       -0.2650
     57 O         -35.1370   15.4010   27.2680 O.3     1  UNL1       -0.3170
     58 C         -35.1910   16.3870   26.2320 C.3     1  UNL1        0.0520
     59 H         -34.8130   15.8940   25.3360 H       1  UNL1        0.0820
     60 H         -36.2080   16.7780   26.2510 H       1  UNL1        0.0820
     61 C         -34.2170   17.5340   26.6110 C.ar    1  UNL1       -0.0340
     62 C         -34.0460   18.6140   25.7520 C.ar    1  UNL1       -0.0750
     63 C         -33.1700   19.6450   26.0910 C.ar    1  UNL1       -0.0820
     64 H         -34.5970   18.6540   24.8120 H       1  UNL1        0.0840
     65 C         -32.4620   19.5910   27.2950 C.ar    1  UNL1       -0.0830
     66 H         -33.0390   20.4910   25.4160 H       1  UNL1        0.0830
     67 C         -32.6340   18.5090   28.1480 C.ar    1  UNL1       -0.0820
     68 H         -31.7760   20.3920   27.5680 H       1  UNL1        0.0830
     69 C         -33.5100   17.4780   27.8130 C.ar    1  UNL1       -0.0750
     70 H         -32.0790   18.4680   29.0850 H       1  UNL1        0.0830
     71 H         -33.6400   16.6320   28.4890 H       1  UNL1        0.0840
     72 C         -30.4890   14.6040   24.5940 C.3     1  UNL1       -0.0390
     73 H         -30.8350   15.5920   24.8970 H       1  UNL1        0.0360
     74 H         -29.4210   14.3880   24.5590 H       1  UNL1        0.0360
     75 C         -31.0760   14.3260   23.1300 C.3     1  UNL1       -0.0010
     76 C         -29.8500   13.9690   22.0930 C.3     1  UNL1       -0.0350
     77 C         -29.9600   14.7610   21.0000 C.3     1  UNL1        0.0850
     78 H         -28.8960   14.2650   22.5270 H       1  UNL1        0.0360
     79 H         -29.9790   12.9640   21.6930 H       1  UNL1        0.0360
     80 N         -30.9510   15.8480   21.3390 N.4     1  UNL1       -0.0490
     81 H         -28.9750   15.2080   20.8640 H       1  UNL1        0.0750
     82 H         -30.3810   14.1260   20.2210 H       1  UNL1        0.0750
     83 C         -31.7090   15.3560   22.6760 C.3     1  UNL1        0.1930
     84 H         -30.4090   16.6710   21.5600 H       1  UNL1        0.2800
     85 H         -31.6190   15.8720   20.5810 H       1  UNL1        0.2800
     86 H         -32.7230   14.9580   22.6240 H       1  UNL1        0.1290
     87 H         -31.9240   13.6410   23.1480 H       1  UNL1        0.0460
     88 O         -31.7640   16.4180   23.6310 O.3     1  UNL1       -0.3690
     89 H         -32.5810   16.9080   23.5170 H       1  UNL1        0.2120
     90 C         -31.9200    9.9820   23.4160 C.3     1  UNL1       -0.0350
     91 H         -32.9390    9.9080   23.0400 H       1  UNL1        0.0370
     92 H         -31.3480   10.8980   23.2640 H       1  UNL1        0.0370
     93 C         -31.1110    8.8370   22.7280 C.3     1  UNL1       -0.0590
     94 H         -30.8250    8.1230   23.5000 H       1  UNL1        0.0380
     95 C         -31.9620    8.0720   21.6640 C.3     1  UNL1       -0.0730
     96 H         -31.4980    8.1760   20.6840 H       1  UNL1        0.0280
     97 H         -32.0140    7.0170   21.9310 H       1  UNL1        0.0280
     98 H         -32.9690    8.4890   21.6360 H       1  UNL1        0.0280
     99 C         -29.8200    9.3760   22.1060 C.3     1  UNL1       -0.0730
    100 H         -29.5930   10.3550   22.5310 H       1  UNL1        0.0280
    101 H         -29.0000    8.6900   22.3180 H       1  UNL1        0.0280
    102 H         -29.9470    9.4680   21.0280 H       1  UNL1        0.0280
@<TRIPOS>BOND
     1    82    77    1
     2    85    80    1
     3    96    95    1
     4    81    77    1
     5    77    80    1
     6    77    76    1
     7   102    99    1
     8    80    84    1
     9    80    83    1
    10    98    95    1
    11    95    97    1
    12    95    93    1
    13    79    76    1
    14    76    78    1
    15    76    75    1
    16    99   101    1
    17    99   100    1
    18    99    93    1
    19    86    83    1
    20    83    75    1
    21    83    88    1
    22    93    90    1
    23    93    94    1
    24    91    90    1
    25    75    87    1
    26    75    72    1
    27    92    90    1
    28    37    35    1
    29    90     1    1
    30    89    88    1
    31    34    33    1
    32    40    39    1
    33    46    45    1
    34    35    36    1
    35    35    33    1
    36    35    38    1
    37    41    39    1
    38    33    39    1
    39    33     7    1
    40    74    72    1
    41    39    42    1
    42    72    73    1
    43    72    47    1
    44    64    62    1
    45     1     2    1
    46     1     3    1
    47     1    43    1
    48    45    43   am
    49    45    47    1
    50    53    52    1
    51     5     4    2
    52     3     4   am
    53     3     6    1
    54    59    58    1
    55     4     7    1
    56    66    63    1
    57    54    52    1
    58    43    44    2
    59    47    48    1
    60    47    49    1
    61     7     8    1
    62     7     9    1
    63    62    63   ar
    64    62    61   ar
    65    52    49    1
    66    52    55    1
    67    63    65   ar
    68    58    60    1
    69    58    61    1
    70    58    57    1
    71    51    49    1
    72    49    50    1
    73    12     9    1
    74    61    69   ar
    75     9    10   am
    76    55    56    2
    77    55    57    1
    78    65    68    1
    79    65    67   ar
    80    69    67   ar
    81    69    71    1
    82    30    29    1
    83    67    70    1
    84    10    11    2
    85    10    13    1
    86    27    25    1
    87    18    15    1
    88    29    31    1
    89    29    13    1
    90    29    32    1
    91    22    20    1
    92    13    15    1
    93    13    14    1
    94    15    16   am
    95    20    21   ar
    96    20    19   ar
    97    25    28    1
    98    25    21    1
    99    25    26    1
   100    21    23   ar
   101    16    19    1
   102    16    17    2
   103    19    24   ar
   104    23    24   ar
@<TRIPOS>MOLECULE
crystal_redock_e8_er3_1.pdbqt
 102 104 0 0 0
SMALL
GASTEIGER

@<TRIPOS>ATOM
      1 C         -36.6280   13.7980   26.3330 C.3     1  UNL1        0.0890
      2 H         -37.2470   13.8290   27.2310 H       1  UNL1        0.0870
      3 N         -36.2910   15.1700   25.9860 N.am    1  UNL1       -0.3460
      4 C         -36.9650   16.3210   26.6900 C.2     1  UNL1        0.2410
      5 O         -37.7780   16.1180   27.5300 O.2     1  UNL1       -0.2710
      6 H         -35.5980   15.3220   25.2670 H       1  UNL1        0.1630
      7 C         -36.6000   17.7360   26.3220 C.3     1  UNL1        0.0920
      8 H         -36.9520   18.4110   27.1010 H       1  UNL1        0.0880
      9 N         -35.1400   17.8650   26.2650 N.am    1  UNL1       -0.3460
     10 C         -34.3690   17.8720   27.4840 C.2     1  UNL1        0.2400
     11 O         -34.9070   17.7760   28.5190 O.2     1  UNL1       -0.2710
     12 H         -34.6630   17.9500   25.3790 H       1  UNL1        0.1630
     13 C         -32.8170   18.0120   27.4160 C.3     1  UNL1        0.0860
     14 H         -32.3040   17.3610   28.1230 H       1  UNL1        0.0860
     15 N         -32.3660   17.6260   26.0900 N.am    1  UNL1       -0.3430
     16 C         -31.8740   16.2650   25.8640 C.2     1  UNL1        0.2730
     17 O         -31.8420   15.4900   26.7560 O.2     1  UNL1       -0.2660
     18 H         -32.3930   18.2950   25.3340 H       1  UNL1        0.1630
     19 C         -31.3950   15.8420   24.4660 C.ar    1  UNL1        0.1540
     20 C         -30.5680   14.7210   24.1380 C.ar    1  UNL1       -0.0170
     21 C         -30.4220   14.7750   22.7340 C.ar    1  UNL1        0.0770
     22 H         -30.1390   13.9810   24.8150 H       1  UNL1        0.0910
     23 O         -31.0920   15.8080   22.3150 O.2     1  UNL1       -0.2180
     24 N         -31.6680   16.4470   23.3070 N.ar    1  UNL1       -0.1230
     25 C         -29.6290   13.8020   21.8720 C.3     1  UNL1       -0.0290
     26 H         -28.5700   14.0540   21.9200 H       1  UNL1        0.0360
     27 H         -29.7780   12.7870   22.2390 H       1  UNL1        0.0360
     28 H         -29.9720   13.8690   20.8390 H       1  UNL1        0.0360
     29 C         -32.4260   19.4410   27.6990 C.3     1  UNL1       -0.0490
     30 H         -31.9580   19.8710   26.8140 H       1  UNL1        0.0300
     31 H         -33.3150   20.0160   27.9550 H       1  UNL1        0.0300
     32 H         -31.7230   19.4680   28.5310 H       1  UNL1        0.0300
     33 C         -37.2030   18.0820   24.9290 C.3     1  UNL1       -0.0330
     34 H         -36.8320   17.3450   24.2180 H       1  UNL1        0.0420
     35 C         -38.7600   17.9770   24.9430 C.3     1  UNL1       -0.0710
     36 H         -39.1360   18.2760   25.9210 H       1  UNL1        0.0280
     37 H         -39.1750   18.6330   24.1780 H       1  UNL1        0.0280
     38 H         -39.0570   16.9480   24.7390 H       1  UNL1        0.0280
     39 C         -36.7340   19.4940   24.4520 C.3     1  UNL1       -0.0710
     40 H         -36.4810   19.4530   23.3920 H       1  UNL1        0.0280
     41 H         -37.5380   20.2150   24.6070 H       1  UNL1        0.0280
     42 H         -35.8580   19.7990   25.0240 H       1  UNL1        0.0280
     43 C         -35.3080   13.0050   26.5560 C.2     1  UNL1        0.2400
     44 O         -34.3450   13.2680   25.9120 O.2     1  UNL1       -0.2710
     45 N         -35.2440   11.9230   27.5790 N.am    1  UNL1       -0.3550
     46 H         -36.0550   11.6930   28.1360 H       1  UNL1        0.1620
     47 C         -33.9810   11.1790   27.7800 C.3     1  UNL1        0.0130
     48 H         -33.1790   11.7480   27.3120 H       1  UNL1        0.0720
     49 C         -34.0950    9.8170   27.1330 C.3     1  UNL1       -0.0380
     50 H         -35.0150    9.3810   27.5230 H       1  UNL1        0.0360
     51 H         -33.9840    9.9900   26.0620 H       1  UNL1        0.0360
     52 C         -32.9530    8.8620   27.5420 C.3     1  UNL1        0.0180
     53 H         -32.0390    9.3130   27.1560 H       1  UNL1        0.0480
     54 H         -33.0710    8.7010   28.6130 H       1  UNL1        0.0480
     55 C         -33.0470    7.4570   26.8850 C.2     1  UNL1        0.2590
     56 O         -33.7630    6.6250   27.3400 O.2     1  UNL1       -0.2650
     57 O         -32.2550    7.1690   25.7390 O.3     1  UNL1       -0.3170
     58 C         -32.8420    7.5910   24.5050 C.3     1  UNL1        0.0520
     59 H         -32.9410    6.6890   23.9010 H       1  UNL1        0.0820
     60 H         -33.7280    8.1620   24.7800 H       1  UNL1        0.0820
     61 C         -31.8420    8.5460   23.8000 C.ar    1  UNL1       -0.0340
     62 C         -31.8030    9.8930   24.1460 C.ar    1  UNL1       -0.0750
     63 C         -30.9050   10.7510   23.5130 C.ar    1  UNL1       -0.0820
     64 H         -32.4770   10.2770   24.9120 H       1  UNL1        0.0840
     65 C         -30.0450   10.2570   22.5280 C.ar    1  UNL1       -0.0830
     66 H         -30.8760   11.8050   23.7870 H       1  UNL1        0.0830
     67 C         -30.0890    8.9130   22.1840 C.ar    1  UNL1       -0.0820
     68 H         -29.3390   10.9210   22.0290 H       1  UNL1        0.0830
     69 C         -30.9840    8.0520   22.8160 C.ar    1  UNL1       -0.0750
     70 H         -29.4180    8.5320   21.4140 H       1  UNL1        0.0830
     71 H         -31.0120    6.9970   22.5410 H       1  UNL1        0.0840
     72 C         -33.7120   11.0120   29.2750 C.3     1  UNL1       -0.0390
     73 H         -34.6910   11.0600   29.7530 H       1  UNL1        0.0360
     74 H         -33.1070   10.1100   29.3620 H       1  UNL1        0.0360
     75 C         -32.8420   12.2240   29.8590 C.3     1  UNL1       -0.0010
     76 C         -31.6160   12.5820   28.8230 C.3     1  UNL1       -0.0350
     77 C         -30.4520   12.6050   29.5160 C.3     1  UNL1        0.0850
     78 H         -31.4740   11.7670   28.1140 H       1  UNL1        0.0360
     79 H         -31.7180   13.6060   28.4630 H       1  UNL1        0.0360
     80 N         -30.7260   11.9750   30.8600 N.4     1  UNL1       -0.0490
     81 H         -29.7680   11.9670   28.9570 H       1  UNL1        0.0750
     82 H         -30.2190   13.6600   29.6590 H       1  UNL1        0.0750
     83 C         -32.3330   11.9230   31.0070 C.3     1  UNL1        0.1930
     84 H         -30.3770   11.0290   30.8090 H       1  UNL1        0.2800
     85 H         -30.3600   12.6120   31.5540 H       1  UNL1        0.2800
     86 H         -32.8540   12.6350   31.6470 H       1  UNL1        0.1290
     87 H         -33.4630   13.0530   30.1980 H       1  UNL1        0.0460
     88 O         -32.7450   10.6310   31.4570 O.3     1  UNL1       -0.3690
     89 H         -31.9910   10.1660   31.8280 H       1  UNL1        0.2120
     90 C         -37.4120   13.1750   25.1890 C.3     1  UNL1       -0.0350
     91 H         -36.7070   12.5170   24.6810 H       1  UNL1        0.0370
     92 H         -38.3110   12.7620   25.6460 H       1  UNL1        0.0370
     93 C         -37.8940   14.2100   24.1230 C.3     1  UNL1       -0.0590
     94 H         -37.4530   15.1750   24.3760 H       1  UNL1        0.0380
     95 C         -37.4230   13.8350   22.6820 C.3     1  UNL1       -0.0730
     96 H         -38.0680   14.3200   21.9500 H       1  UNL1        0.0280
     97 H         -36.3950   14.1690   22.5360 H       1  UNL1        0.0280
     98 H         -37.4750   12.7540   22.5520 H       1  UNL1        0.0280
     99 C         -39.4140   14.3780   24.1730 C.3     1  UNL1       -0.0730
    100 H         -39.6620   15.4380   24.2260 H       1  UNL1        0.0280
    101 H         -39.8580   13.9470   23.2750 H       1  UNL1        0.0280
    102 H         -39.8080   13.8680   25.0520 H       1  UNL1        0.0280
@<TRIPOS>BOND
     1    28    25    1
     2    70    67    1
     3    25    26    1
     4    25    27    1
     5    25    21    1
     6    96    95    1
     7    68    65    1
     8    67    65   ar
     9    67    69   ar
    10    23    21   ar
    11    23    24   ar
    12    65    63   ar
    13    97    95    1
    14    71    69    1
    15    98    95    1
    16    95    93    1
    17    21    20   ar
    18    69    61   ar
    19   101    99    1
    20    24    19   ar
    21    40    39    1
    22    63    66    1
    23    63    62   ar
    24    61    62   ar
    25    61    58    1
    26    59    58    1
    27    93    99    1
    28    93    94    1
    29    93    90    1
    30    20    19   ar
    31    20    22    1
    32    62    64    1
    33    99   100    1
    34    99   102    1
    35    37    35    1
    36    34    33    1
    37    39    41    1
    38    39    33    1
    39    39    42    1
    40    19    16    1
    41    58    60    1
    42    58    57    1
    43    91    90    1
    44    38    35    1
    45    33    35    1
    46    33     7    1
    47    35    36    1
    48    90    92    1
    49    90     1    1
    50     6     3    1
    51    18    15    1
    52    12     9    1
    53    57    55    1
    54    16    15   am
    55    16    17    2
    56    44    43    2
    57     3     1    1
    58     3     4   am
    59    51    49    1
    60    15    13    1
    61     9     7    1
    62     9    10   am
    63     7     4    1
    64     7     8    1
    65     1    43    1
    66     1     2    1
    67    43    45   am
    68     4     5    2
    69    30    29    1
    70    55    56    2
    71    55    52    1
    72    49    50    1
    73    49    52    1
    74    49    47    1
    75    53    52    1
    76    48    47    1
    77    13    10    1
    78    13    29    1
    79    13    14    1
    80    10    11    2
    81    52    54    1
    82    45    47    1
    83    45    46    1
    84    29    31    1
    85    29    32    1
    86    47    72    1
    87    78    76    1
    88    79    76    1
    89    76    77    1
    90    76    75    1
    91    81    77    1
    92    72    74    1
    93    72    73    1
    94    72    75    1
    95    77    82    1
    96    77    80    1
    97    75    87    1
    98    75    83    1
    99    84    80    1
   100    80    83    1
   101    80    85    1
   102    83    88    1
   103    83    86    1
   104    88    89    1
@<TRIPOS>MOLECULE
crystal_redock_e8_er3_1.pdbqt
 102 104 0 0 0
SMALL
GASTEIGER

@<TRIPOS>ATOM
      1 C         -32.6190   10.1000   24.7810 C.3     1  UNL1        0.0890
      2 H         -32.5760    9.1690   25.3460 H       1  UNL1        0.0870
      3 N         -33.9980   10.5620   24.8010 N.am    1  UNL1       -0.3460
      4 C         -34.9910    9.9560   25.7610 C.2     1  UNL1        0.2410
      5 O         -34.6560    9.0960   26.5070 O.2     1  UNL1       -0.2710
      6 H         -34.2640   11.2940   24.1570 H       1  UNL1        0.1630
      7 C         -36.4140   10.4510   25.7720 C.3     1  UNL1        0.0920
      8 H         -36.7590   10.5280   26.8030 H       1  UNL1        0.0880
      9 N         -36.4680   11.7970   25.1940 N.am    1  UNL1       -0.3460
     10 C         -36.9660   12.8990   25.9810 C.2     1  UNL1        0.2400
     11 O         -37.3270   12.7190   27.0800 O.2     1  UNL1       -0.2710
     12 H         -36.1610   11.9670   24.2470 H       1  UNL1        0.1630
     13 C         -37.0240   14.3290   25.3600 C.3     1  UNL1        0.0860
     14 H         -37.9100   14.8850   25.6650 H       1  UNL1        0.0860
     15 N         -35.8760   15.0910   25.8230 N.am    1  UNL1       -0.3430
     16 C         -36.0210   15.9890   26.9710 C.2     1  UNL1        0.2730
     17 O         -37.0670   16.0930   27.5140 O.2     1  UNL1       -0.2660
     18 H         -34.9870   14.9980   25.3520 H       1  UNL1        0.1630
     19 C         -34.8160   16.7990   27.4720 C.ar    1  UNL1        0.1540
     20 C         -34.3510   18.0560   26.9710 C.ar    1  UNL1       -0.0170
     21 C         -33.2250   18.3700   27.7650 C.ar    1  UNL1        0.0770
     22 H         -34.7660   18.6490   26.1560 H       1  UNL1        0.0910
     23 O         -33.0720   17.4010   28.6200 O.2     1  UNL1       -0.2180
     24 N         -33.9880   16.4730   28.4680 N.ar    1  UNL1       -0.1230
     25 C         -32.3540   19.6130   27.6430 C.3     1  UNL1       -0.0290
     26 H         -32.5230   20.2610   28.5030 H       1  UNL1        0.0360
     27 H         -31.3050   19.3200   27.6110 H       1  UNL1        0.0360
     28 H         -32.6100   20.1480   26.7290 H       1  UNL1        0.0360
     29 C         -37.0050   14.2280   23.8560 C.3     1  UNL1       -0.0490
     30 H         -37.7600   14.8930   23.4380 H       1  UNL1        0.0300
     31 H         -36.0220   14.5170   23.4860 H       1  UNL1        0.0300
     32 H         -37.2180   13.2010   23.5580 H       1  UNL1        0.0300
     33 C         -37.3020    9.4910   24.9270 C.3     1  UNL1       -0.0330
     34 H         -36.7540    8.5560   24.8070 H       1  UNL1        0.0420
     35 C         -38.6390    9.1600   25.6620 C.3     1  UNL1       -0.0710
     36 H         -38.4600    9.1080   26.7360 H       1  UNL1        0.0280
     37 H         -39.3710    9.9390   25.4520 H       1  UNL1        0.0280
     38 H         -39.0180    8.2000   25.3110 H       1  UNL1        0.0280
     39 C         -37.5690   10.0810   23.5050 C.3     1  UNL1       -0.0710
     40 H         -38.6100    9.9110   23.2300 H       1  UNL1        0.0280
     41 H         -37.3650   11.1530   23.5130 H       1  UNL1        0.0280
     42 H         -36.9160    9.5940   22.7810 H       1  UNL1        0.0280
     43 C         -31.7170   11.2060   25.4030 C.2     1  UNL1        0.2400
     44 O         -30.8930   10.9130   26.2070 O.2     1  UNL1       -0.2710
     45 N         -31.8770   12.6290   24.9880 N.am    1  UNL1       -0.3550
     46 H         -32.5700   12.8890   24.3020 H       1  UNL1        0.1620
     47 C         -31.0110   13.6680   25.5870 C.3     1  UNL1        0.0130
     48 H         -30.0440   13.2140   25.8040 H       1  UNL1        0.0720
     49 C         -31.6450   14.1700   26.8650 C.3     1  UNL1       -0.0380
     50 H         -31.9750   15.1870   26.6500 H       1  UNL1        0.0360
     51 H         -32.3710   13.4100   27.1520 H       1  UNL1        0.0360
     52 C         -30.6390   14.2750   28.0320 C.3     1  UNL1        0.0180
     53 H         -29.9250   13.4660   27.8800 H       1  UNL1        0.0480
     54 H         -30.2960   15.3100   28.0350 H       1  UNL1        0.0480
     55 C         -31.2730   14.0300   29.4290 C.2     1  UNL1        0.2590
     56 O         -30.8420   14.5780   30.3910 O.2     1  UNL1       -0.2650
     57 O         -32.3690   13.1310   29.5490 O.3     1  UNL1       -0.3170
     58 C         -31.9930   11.7510   29.5450 C.3     1  UNL1        0.0520
     59 H         -31.9740   11.4540   28.4960 H       1  UNL1        0.0820
     60 H         -31.0860   11.6900   30.1450 H       1  UNL1        0.0820
     61 C         -33.1110   10.9480   30.2620 C.ar    1  UNL1       -0.0340
     62 C         -33.6920   11.4470   31.4230 C.ar    1  UNL1       -0.0750
     63 C         -34.6960   10.7260   32.0680 C.ar    1  UNL1       -0.0820
     64 H         -33.3600   12.4030   31.8290 H       1  UNL1        0.0840
     65 C         -35.1180    9.4990   31.5470 C.ar    1  UNL1       -0.0830
     66 H         -35.1500   11.1210   32.9770 H       1  UNL1        0.0830
     67 C         -34.5330    9.0040   30.3900 C.ar    1  UNL1       -0.0820
     68 H         -35.9020    8.9290   32.0450 H       1  UNL1        0.0830
     69 C         -33.5310    9.7220   29.7410 C.ar    1  UNL1       -0.0750
     70 H         -34.8630    8.0450   29.9880 H       1  UNL1        0.0830
     71 H         -33.0770    9.3270   28.8320 H       1  UNL1        0.0840
     72 C         -30.8450   14.8290   24.6090 C.3     1  UNL1       -0.0390
     73 H         -31.8550   15.1910   24.4160 H       1  UNL1        0.0360
     74 H         -30.1080   15.4890   25.0650 H       1  UNL1        0.0360
     75 C         -30.2410   14.3420   23.2080 C.3     1  UNL1       -0.0010
     76 C         -28.8650   15.1770   22.8700 C.3     1  UNL1       -0.0350
     77 C         -28.9610   15.6880   21.6200 C.3     1  UNL1        0.0850
     78 H         -28.8000   16.0610   23.5030 H       1  UNL1        0.0360
     79 H         -28.0200   14.4920   22.8010 H       1  UNL1        0.0360
     80 N         -30.4050   15.5560   21.1980 N.4     1  UNL1       -0.0490
     81 H         -28.7150   16.7460   21.7180 H       1  UNL1        0.0750
     82 H         -28.3480   15.0420   20.9930 H       1  UNL1        0.0750
     83 C         -31.0810   14.5310   22.2450 C.3     1  UNL1        0.1930
     84 H         -30.8240   16.4670   21.3230 H       1  UNL1        0.2800
     85 H         -30.3970   15.1250   20.2850 H       1  UNL1        0.2800
     86 H         -31.2870   13.5000   21.9570 H       1  UNL1        0.1290
     87 H         -30.1920   13.2550   23.1350 H       1  UNL1        0.0460
     88 O         -32.3270   15.0530   22.7120 O.3     1  UNL1       -0.3690
     89 H         -33.0010   14.9180   22.0420 H       1  UNL1        0.2120
     90 C         -32.2000    9.8490   23.3420 C.3     1  UNL1       -0.0350
     91 H         -32.7670    8.9740   23.0250 H       1  UNL1        0.0370
     92 H         -32.3370   10.8020   22.8300 H       1  UNL1        0.0370
     93 C         -30.6910    9.4770   23.1840 C.3     1  UNL1       -0.0590
     94 H         -30.2670    9.3860   24.1830 H       1  UNL1        0.0380
     95 C         -30.4950    8.1080   22.4570 C.3     1  UNL1       -0.0730
     96 H         -31.3030    7.9570   21.7410 H       1  UNL1        0.0280
     97 H         -29.5400    8.1090   21.9310 H       1  UNL1        0.0280
     98 H         -30.5050    7.3020   23.1900 H       1  UNL1        0.0280
     99 C         -29.9260   10.5900   22.4640 C.3     1  UNL1       -0.0730
    100 H         -29.0100   10.8140   23.0110 H       1  UNL1        0.0280
    101 H         -29.6750   10.2650   21.4540 H       1  UNL1        0.0280
    102 H         -30.5470   11.4840   22.4130 H       1  UNL1        0.0280
@<TRIPOS>BOND
     1    85    80    1
     2    82    77    1
     3    80    84    1
     4    80    77    1
     5    80    83    1
     6   101    99    1
     7    77    81    1
     8    77    76    1
     9    96    95    1
    10    97    95    1
    11    86    83    1
    12    89    88    1
    13    83    88    1
    14    83    75    1
    15   102    99    1
    16    95    93    1
    17    95    98    1
    18    99   100    1
    19    99    93    1
    20    42    39    1
    21    79    76    1
    22    92    90    1
    23    76    75    1
    24    76    78    1
    25    91    90    1
    26    87    75    1
    27    93    90    1
    28    93    94    1
    29    75    72    1
    30    40    39    1
    31    90     1    1
    32    30    29    1
    33    31    29    1
    34    39    41    1
    35    39    33    1
    36    32    29    1
    37    29    13    1
    38     6     3    1
    39    12     9    1
    40    46    45    1
    41    73    72    1
    42    72    74    1
    43    72    47    1
    44     1     3    1
    45     1     2    1
    46     1    43    1
    47     3     4   am
    48    34    33    1
    49    33    35    1
    50    33     7    1
    51    45    43   am
    52    45    47    1
    53     9     7    1
    54     9    10   am
    55    38    35    1
    56    18    15    1
    57    13    14    1
    58    13    15    1
    59    13    10    1
    60    43    44    2
    61    37    35    1
    62    47    48    1
    63    47    49    1
    64    35    36    1
    65     4     7    1
    66     4     5    2
    67     7     8    1
    68    15    16   am
    69    10    11    2
    70    22    20    1
    71    50    49    1
    72    28    25    1
    73    49    51    1
    74    49    52    1
    75    16    19    1
    76    16    17    2
    77    20    19   ar
    78    20    21   ar
    79    19    24   ar
    80    27    25    1
    81    25    21    1
    82    25    26    1
    83    21    23   ar
    84    53    52    1
    85    52    54    1
    86    52    55    1
    87    24    23   ar
    88    59    58    1
    89    71    69    1
    90    55    57    1
    91    55    56    2
    92    58    57    1
    93    58    60    1
    94    58    61    1
    95    69    61   ar
    96    69    67   ar
    97    70    67    1
    98    61    62   ar
    99    67    65   ar
   100    62    64    1
   101    62    63   ar
   102    65    68    1
   103    65    63   ar
   104    63    66    1
@<TRIPOS>MOLECULE
crystal_redock_e8_er3_1.pdbqt
 102 104 0 0 0
SMALL
GASTEIGER

@<TRIPOS>ATOM
      1 C         -36.1770   10.3350   26.4440 C.3     1  UNL1        0.0890
      2 H         -37.2110   10.1140   26.7090 H       1  UNL1        0.0870
      3 N         -35.3720   10.1740   27.6460 N.am    1  UNL1       -0.3460
      4 C         -36.0080   10.2860   29.0090 C.2     1  UNL1        0.2410
      5 O         -37.1690   10.5100   29.1130 O.2     1  UNL1       -0.2710
      6 H         -34.3860    9.9870   27.5360 H       1  UNL1        0.1630
      7 C         -35.1610   10.1110   30.2420 C.3     1  UNL1        0.0920
      8 H         -34.6720    9.1380   30.2060 H       1  UNL1        0.0880
      9 N         -34.1040   11.1280   30.2580 N.am    1  UNL1       -0.3460
     10 C         -32.8630   10.8860   29.5640 C.2     1  UNL1        0.2400
     11 O         -32.6970    9.8800   28.9900 O.2     1  UNL1       -0.2710
     12 H         -34.2320   12.0000   30.7500 H       1  UNL1        0.1630
     13 C         -31.7400   11.9700   29.5870 C.3     1  UNL1        0.0860
     14 H         -30.9850   11.8110   28.8190 H       1  UNL1        0.0860
     15 N         -32.3350   13.2700   29.3230 N.am    1  UNL1       -0.3430
     16 C         -31.6200   14.2320   28.4820 C.2     1  UNL1        0.2730
     17 O         -30.5670   13.9520   28.0250 O.2     1  UNL1       -0.2660
     18 H         -33.2350   13.5020   29.7200 H       1  UNL1        0.1630
     19 C         -32.2380   15.6100   28.1930 C.ar    1  UNL1        0.1540
     20 C         -32.4350   16.2170   26.9120 C.ar    1  UNL1       -0.0170
     21 C         -33.0310   17.4670   27.1910 C.ar    1  UNL1        0.0770
     22 H         -32.1830   15.8130   25.9310 H       1  UNL1        0.0910
     23 O         -33.1590   17.5560   28.4820 O.2     1  UNL1       -0.2180
     24 N         -32.7020   16.4850   29.0890 N.ar    1  UNL1       -0.1230
     25 C         -33.4480   18.5150   26.1680 C.3     1  UNL1       -0.0290
     26 H         -34.5350   18.5870   26.1430 H       1  UNL1        0.0360
     27 H         -33.0270   19.4820   26.4460 H       1  UNL1        0.0360
     28 H         -33.0800   18.2290   25.1830 H       1  UNL1        0.0360
     29 C         -31.0690   11.9740   30.9370 C.3     1  UNL1       -0.0490
     30 H         -31.3550   12.8740   31.4820 H       1  UNL1        0.0300
     31 H         -31.3810   11.0950   31.5000 H       1  UNL1        0.0300
     32 H         -29.9870   11.9570   30.8050 H       1  UNL1        0.0300
     33 C         -36.0510   10.2730   31.5090 C.3     1  UNL1       -0.0330
     34 H         -36.8990   10.9000   31.2370 H       1  UNL1        0.0420
     35 C         -36.6170    8.8990   31.9850 C.3     1  UNL1       -0.0710
     36 H         -35.8520    8.1310   31.8690 H       1  UNL1        0.0280
     37 H         -36.9060    8.9680   33.0330 H       1  UNL1        0.0280
     38 H         -37.4870    8.6370   31.3840 H       1  UNL1        0.0280
     39 C         -35.2670   10.9900   32.6550 C.3     1  UNL1       -0.0710
     40 H         -35.9570   11.5940   33.2440 H       1  UNL1        0.0280
     41 H         -34.7980   10.2430   33.2970 H       1  UNL1        0.0280
     42 H         -34.4990   11.6310   32.2240 H       1  UNL1        0.0280
     43 C         -35.6330    9.3710   25.3510 C.2     1  UNL1        0.2400
     44 O         -36.1440    9.3450   24.2780 O.2     1  UNL1       -0.2710
     45 N         -34.4690    8.4860   25.6390 N.am    1  UNL1       -0.3550
     46 H         -34.0230    8.5030   26.5450 H       1  UNL1        0.1620
     47 C         -33.9620    7.5760   24.5880 C.3     1  UNL1        0.0130
     48 H         -34.4720    7.8220   23.6570 H       1  UNL1        0.0720
     49 C         -34.2610    6.1470   24.9790 C.3     1  UNL1       -0.0380
     50 H         -35.0460    6.2050   25.7330 H       1  UNL1        0.0360
     51 H         -34.4430    5.6180   24.0430 H       1  UNL1        0.0360
     52 C         -33.0610    5.4450   25.6510 C.3     1  UNL1        0.0180
     53 H         -33.0650    4.4250   25.2710 H       1  UNL1        0.0480
     54 H         -32.2020    6.0920   25.4700 H       1  UNL1        0.0480
     55 C         -33.1900    5.3270   27.1950 C.2     1  UNL1        0.2590
     56 O         -32.6610    4.4360   27.7780 O.2     1  UNL1       -0.2650
     57 O         -33.9580    6.2900   27.9070 O.3     1  UNL1       -0.3170
     58 C         -34.5080    5.8040   29.1350 C.3     1  UNL1        0.0520
     59 H         -34.3880    4.7210   29.1040 H       1  UNL1        0.0820
     60 H         -34.0270    6.3830   29.9230 H       1  UNL1        0.0820
     61 C         -36.0250    6.1310   29.1420 C.ar    1  UNL1       -0.0340
     62 C         -36.5930    6.8290   28.0820 C.ar    1  UNL1       -0.0750
     63 C         -37.9550    7.1230   28.0880 C.ar    1  UNL1       -0.0820
     64 H         -35.9700    7.1480   27.2450 H       1  UNL1        0.0840
     65 C         -38.7510    6.7170   29.1630 C.ar    1  UNL1       -0.0830
     66 H         -38.3980    7.6690   27.2550 H       1  UNL1        0.0830
     67 C         -38.1800    6.0220   30.2210 C.ar    1  UNL1       -0.0820
     68 H         -39.8180    6.9410   29.1760 H       1  UNL1        0.0830
     69 C         -36.8190    5.7250   30.2170 C.ar    1  UNL1       -0.0750
     70 H         -38.8030    5.7090   31.0580 H       1  UNL1        0.0830
     71 H         -36.3770    5.1780   31.0510 H       1  UNL1        0.0840
     72 C         -32.4540    7.7570   24.4320 C.3     1  UNL1       -0.0390
     73 H         -32.0780    7.9480   25.4370 H       1  UNL1        0.0360
     74 H         -32.1130    6.8820   23.8800 H       1  UNL1        0.0360
     75 C         -32.1000    9.0430   23.5440 C.3     1  UNL1       -0.0010
     76 C         -31.0470    8.6280   22.3510 C.3     1  UNL1       -0.0350
     77 C         -29.9970    9.4830   22.3790 C.3     1  UNL1        0.0850
     78 H         -30.5950    7.6610   22.5720 H       1  UNL1        0.0360
     79 H         -31.4970    8.8090   21.3750 H       1  UNL1        0.0360
     80 N         -30.0770   10.2370   23.6840 N.4     1  UNL1       -0.0490
     81 H         -29.1080    8.8510   22.3870 H       1  UNL1        0.0750
     82 H         -30.1650   10.1770   21.5570 H       1  UNL1        0.0750
     83 C         -31.5610    9.9720   24.2600 C.3     1  UNL1        0.1930
     84 H         -29.4090    9.8050   24.3060 H       1  UNL1        0.2800
     85 H         -29.9910   11.2170   23.4530 H       1  UNL1        0.2800
     86 H         -32.3280   10.7450   24.1930 H       1  UNL1        0.1290
     87 H         -32.9910    9.5980   23.2480 H       1  UNL1        0.0460
     88 O         -31.4980    9.6180   25.6430 O.3     1  UNL1       -0.3690
     89 H         -32.3870    9.5690   26.0020 H       1  UNL1        0.2120
     90 C         -36.0650   11.7720   25.9600 C.3     1  UNL1       -0.0350
     91 H         -35.7580   11.7020   24.9170 H       1  UNL1        0.0370
     92 H         -37.0160   12.2390   26.2190 H       1  UNL1        0.0370
     93 C         -34.9560   12.5940   26.6920 C.3     1  UNL1       -0.0590
     94 H         -34.8150   12.1540   27.6780 H       1  UNL1        0.0380
     95 C         -33.5870   12.5340   25.9420 C.3     1  UNL1       -0.0730
     96 H         -33.0920   13.5030   26.0110 H       1  UNL1        0.0280
     97 H         -32.9560   11.7720   26.3970 H       1  UNL1        0.0280
     98 H         -33.7570   12.2870   24.8940 H       1  UNL1        0.0280
     99 C         -35.4000   14.0450   26.9000 C.3     1  UNL1       -0.0730
    100 H         -36.3360   14.0620   27.4590 H       1  UNL1        0.0280
    101 H         -34.6340   14.5820   27.4600 H       1  UNL1        0.0280
    102 H         -35.5450   14.5230   25.9320 H       1  UNL1        0.0280
@<TRIPOS>BOND
     1    79    76    1
     2    82    77    1
     3    76    77    1
     4    76    78    1
     5    76    75    1
     6    77    81    1
     7    77    80    1
     8    87    75    1
     9    85    80    1
    10    75    83    1
    11    75    72    1
    12    48    47    1
    13    80    83    1
    14    80    84    1
    15    74    72    1
    16    51    49    1
    17    86    83    1
    18    83    88    1
    19    44    43    2
    20    72    47    1
    21    72    73    1
    22    47    49    1
    23    47    45    1
    24    98    95    1
    25    91    90    1
    26    49    52    1
    27    49    50    1
    28    28    25    1
    29    53    52    1
    30    43    45   am
    31    43     1    1
    32    54    52    1
    33    45    46    1
    34    88    89    1
    35    52    55    1
    36    22    20    1
    37   102    99    1
    38    95    96    1
    39    95    97    1
    40    95    93    1
    41    90    92    1
    42    90     1    1
    43    90    93    1
    44    26    25    1
    45    25    27    1
    46    25    21    1
    47     1     2    1
    48     1     3    1
    49    93    99    1
    50    93    94    1
    51    99   100    1
    52    99   101    1
    53    20    21   ar
    54    20    19   ar
    55    21    23   ar
    56    55    56    2
    57    55    57    1
    58    64    62    1
    59    66    63    1
    60     6     3    1
    61     3     4   am
    62    57    58    1
    63    17    16    2
    64    62    63   ar
    65    62    61   ar
    66    63    65   ar
    67    19    16    1
    68    19    24   ar
    69    23    24   ar
    70    16    15   am
    71    14    13    1
    72    11    10    2
    73     4     5    2
    74     4     7    1
    75    59    58    1
    76    58    61    1
    77    58    60    1
    78    61    69   ar
    79    65    68    1
    80    65    67   ar
    81    15    13    1
    82    15    18    1
    83    10    13    1
    84    10     9   am
    85    13    29    1
    86     8     7    1
    87    69    67   ar
    88    69    71    1
    89    67    70    1
    90     7     9    1
    91     7    33    1
    92     9    12    1
    93    32    29    1
    94    29    30    1
    95    29    31    1
    96    34    33    1
    97    38    35    1
    98    33    35    1
    99    33    39    1
   100    36    35    1
   101    35    37    1
   102    42    39    1
   103    39    40    1
   104    39    41    1
@<TRIPOS>MOLECULE
crystal_redock_e8_er3_1.pdbqt
 102 104 0 0 0
SMALL
GASTEIGER

@<TRIPOS>ATOM
      1 C         -32.5130    7.5340   26.5810 C.3     1  UNL1        0.0890
      2 H         -31.6020    7.0550   26.9420 H       1  UNL1        0.0870
      3 N         -33.6390    6.7270   27.0270 N.am    1  UNL1       -0.3460
      4 C         -33.4040    5.4100   27.7210 C.2     1  UNL1        0.2410
      5 O         -32.2990    5.0170   27.9070 O.2     1  UNL1       -0.2710
      6 H         -34.5710    7.0780   26.8580 H       1  UNL1        0.1630
      7 C         -34.5810    4.5900   28.1820 C.3     1  UNL1        0.0920
      8 H         -34.2570    3.9060   28.9660 H       1  UNL1        0.0880
      9 N         -35.5920    5.4750   28.7690 N.am    1  UNL1       -0.3460
     10 C         -35.4730    5.8920   30.1450 C.2     1  UNL1        0.2400
     11 O         -34.5710    5.5240   30.7940 O.2     1  UNL1       -0.2710
     12 H         -36.3770    5.7990   28.2220 H       1  UNL1        0.1630
     13 C         -36.5540    6.8310   30.7650 C.3     1  UNL1        0.0860
     14 H         -36.1880    7.3800   31.6320 H       1  UNL1        0.0860
     15 N         -36.9400    7.8230   29.7760 N.am    1  UNL1       -0.3430
     16 C         -37.0620    9.2280   30.1740 C.2     1  UNL1        0.2730
     17 O         -36.8510    9.5480   31.2920 O.2     1  UNL1       -0.2660
     18 H         -37.1210    7.5410   28.8240 H       1  UNL1        0.1630
     19 C         -37.4670   10.2880   29.1380 C.ar    1  UNL1        0.1540
     20 C         -36.9230   10.4700   27.8280 C.ar    1  UNL1       -0.0170
     21 C         -37.6310   11.5670   27.2880 C.ar    1  UNL1        0.0770
     22 H         -36.1340    9.8940   27.3420 H       1  UNL1        0.0910
     23 O         -38.4810   11.9610   28.1910 O.2     1  UNL1       -0.2180
     24 N         -38.4040   11.2300   29.2790 N.ar    1  UNL1       -0.1230
     25 C         -37.4350   12.1750   25.9060 C.3     1  UNL1       -0.0290
     26 H         -36.3950   12.0580   25.6010 H       1  UNL1        0.0360
     27 H         -38.0820   11.6660   25.1910 H       1  UNL1        0.0360
     28 H         -37.6880   13.2340   25.9350 H       1  UNL1        0.0360
     29 C         -37.7550    6.0170   31.1750 C.3     1  UNL1       -0.0490
     30 H         -38.3430    6.5780   31.9010 H       1  UNL1        0.0300
     31 H         -38.3660    5.8040   30.2990 H       1  UNL1        0.0300
     32 H         -37.4230    5.0800   31.6230 H       1  UNL1        0.0300
     33 C         -35.1970    3.8380   26.9660 C.3     1  UNL1       -0.0330
     34 H         -35.0670    4.4710   26.0880 H       1  UNL1        0.0420
     35 C         -34.4510    2.4950   26.6920 C.3     1  UNL1       -0.0710
     36 H         -33.4390    2.7060   26.3450 H       1  UNL1        0.0280
     37 H         -34.4060    1.9100   27.6100 H       1  UNL1        0.0280
     38 H         -34.9860    1.9320   25.9270 H       1  UNL1        0.0280
     39 C         -36.7280    3.6040   27.1710 C.3     1  UNL1       -0.0710
     40 H         -37.0330    2.7060   26.6330 H       1  UNL1        0.0280
     41 H         -36.9380    3.4800   28.2340 H       1  UNL1        0.0280
     42 H         -37.2810    4.4630   26.7900 H       1  UNL1        0.0280
     43 C         -32.6820    8.9750   27.1420 C.2     1  UNL1        0.2400
     44 O         -33.0200    9.1330   28.2700 O.2     1  UNL1       -0.2710
     45 N         -32.4130   10.1570   26.2750 N.am    1  UNL1       -0.3550
     46 H         -32.1200   10.0350   25.3170 H       1  UNL1        0.1620
     47 C         -32.5760   11.5210   26.8250 C.3     1  UNL1        0.0130
     48 H         -33.0300   11.4320   27.8120 H       1  UNL1        0.0720
     49 C         -33.4770   12.3220   25.9120 C.3     1  UNL1       -0.0380
     50 H         -32.8260   12.7300   25.1390 H       1  UNL1        0.0360
     51 H         -34.2930   11.6510   25.6410 H       1  UNL1        0.0360
     52 C         -34.1240   13.5320   26.6210 C.3     1  UNL1        0.0180
     53 H         -35.1810   13.4970   26.3590 H       1  UNL1        0.0480
     54 H         -33.8180   13.4610   27.6650 H       1  UNL1        0.0480
     55 C         -33.6030   14.9060   26.1150 C.2     1  UNL1        0.2590
     56 O         -33.4010   15.7930   26.8790 O.2     1  UNL1       -0.2650
     57 O         -33.3820   15.0970   24.7230 O.3     1  UNL1       -0.3170
     58 C         -32.3390   16.0290   24.4210 C.3     1  UNL1        0.0520
     59 H         -32.8270   16.8680   23.9260 H       1  UNL1        0.0820
     60 H         -31.8030   16.1850   25.3580 H       1  UNL1        0.0820
     61 C         -31.3730   15.3560   23.4100 C.ar    1  UNL1       -0.0340
     62 C         -30.9240   14.0580   23.6330 C.ar    1  UNL1       -0.0750
     63 C         -30.0560   13.4540   22.7250 C.ar    1  UNL1       -0.0820
     64 H         -31.2520   13.5150   24.5190 H       1  UNL1        0.0840
     65 C         -29.6350   14.1540   21.5900 C.ar    1  UNL1       -0.0830
     66 H         -29.7080   12.4360   22.9010 H       1  UNL1        0.0830
     67 C         -30.0830   15.4500   21.3740 C.ar    1  UNL1       -0.0820
     68 H         -28.9570   13.6890   20.8750 H       1  UNL1        0.0830
     69 C         -30.9520   16.0570   22.2780 C.ar    1  UNL1       -0.0750
     70 H         -29.7510   15.9940   20.4890 H       1  UNL1        0.0830
     71 H         -31.3000   17.0750   22.1010 H       1  UNL1        0.0840
     72 C         -31.2140   12.2040   26.9250 C.3     1  UNL1       -0.0390
     73 H         -30.4890   11.4550   26.6060 H       1  UNL1        0.0360
     74 H         -31.3150   13.1360   26.3690 H       1  UNL1        0.0360
     75 C         -30.8560   12.5930   28.4380 C.3     1  UNL1       -0.0010
     76 C         -32.1290   12.2480   29.4210 C.3     1  UNL1       -0.0350
     77 C         -32.4170   13.3440   30.1630 C.3     1  UNL1        0.0850
     78 H         -33.0300   12.0980   28.8260 H       1  UNL1        0.0360
     79 H         -31.8370   11.5060   30.1640 H       1  UNL1        0.0360
     80 N         -31.6720   14.5030   29.5450 N.4     1  UNL1       -0.0490
     81 H         -33.4880   13.5040   30.0420 H       1  UNL1        0.0750
     82 H         -32.0040   13.1430   31.1510 H       1  UNL1        0.0750
     83 C         -30.5850   13.8510   28.5450 C.3     1  UNL1        0.1930
     84 H         -32.3470   15.0170   28.9970 H       1  UNL1        0.2800
     85 H         -31.1810   14.9610   30.3000 H       1  UNL1        0.2800
     86 H         -29.5330   13.8030   28.8260 H       1  UNL1        0.1290
     87 H         -29.8790   12.2160   28.7410 H       1  UNL1        0.0460
     88 O         -30.6140   14.5180   27.2830 O.3     1  UNL1       -0.3690
     89 H         -30.3170   15.4250   27.3930 H       1  UNL1        0.2120
     90 C         -32.5040    7.5750   25.0610 C.3     1  UNL1       -0.0350
     91 H         -33.5470    7.4740   24.7630 H       1  UNL1        0.0370
     92 H         -31.9480    8.4760   24.8000 H       1  UNL1        0.0370
     93 C         -31.7420    6.3800   24.4060 C.3     1  UNL1       -0.0590
     94 H         -31.0480    5.9840   25.1470 H       1  UNL1        0.0380
     95 C         -32.7060    5.2230   23.9890 C.3     1  UNL1       -0.0730
     96 H         -33.2980    5.5350   23.1290 H       1  UNL1        0.0280
     97 H         -32.1230    4.3410   23.7270 H       1  UNL1        0.0280
     98 H         -33.3700    4.9870   24.8200 H       1  UNL1        0.0280
     99 C         -30.9090    6.8520   23.2110 C.3     1  UNL1       -0.0730
    100 H         -30.2230    7.6360   23.5330 H       1  UNL1        0.0280
    101 H         -30.3390    6.0130   22.8110 H       1  UNL1        0.0280
    102 H         -31.5710    7.2420   22.4380 H       1  UNL1        0.0280
@<TRIPOS>BOND
     1    70    67    1
     2    68    65    1
     3    67    65   ar
     4    67    69   ar
     5    65    63   ar
     6    71    69    1
     7    69    61   ar
     8   102    99    1
     9    63    66    1
    10    63    62   ar
    11   101    99    1
    12    96    95    1
    13    99   100    1
    14    99    93    1
    15    61    62   ar
    16    61    58    1
    17    62    64    1
    18    97    95    1
    19    59    58    1
    20    95    93    1
    21    95    98    1
    22    93    90    1
    23    93    94    1
    24    58    57    1
    25    58    60    1
    26    57    55    1
    27    91    90    1
    28    92    90    1
    29    90     1    1
    30    50    49    1
    31    27    25    1
    32    46    45    1
    33    26    25    1
    34    51    49    1
    35    25    28    1
    36    25    21    1
    37    49    52    1
    38    49    47    1
    39    38    35    1
    40    34    33    1
    41    55    52    1
    42    55    56    2
    43    45    47    1
    44    45    43   am
    45    36    35    1
    46    53    52    1
    47    74    72    1
    48     1     2    1
    49     1     3    1
    50     1    43    1
    51    73    72    1
    52    52    54    1
    53    40    39    1
    54    35    33    1
    55    35    37    1
    56    42    39    1
    57    47    72    1
    58    47    48    1
    59     6     3    1
    60    72    75    1
    61    33    39    1
    62    33     7    1
    63     3     4   am
    64    43    44    2
    65    39    41    1
    66    88    89    1
    67    88    83    1
    68    21    20   ar
    69    21    23   ar
    70    22    20    1
    71     4     5    2
    72     4     7    1
    73    20    19   ar
    74     7     9    1
    75     7     8    1
    76    23    24   ar
    77    12     9    1
    78    75    83    1
    79    75    87    1
    80    75    76    1
    81    83    86    1
    82    83    80    1
    83     9    10   am
    84    18    15    1
    85    78    76    1
    86    84    80    1
    87    19    24   ar
    88    19    16    1
    89    76    77    1
    90    76    79    1
    91    80    77    1
    92    80    85    1
    93    15    16   am
    94    15    13    1
    95    81    77    1
    96    10    13    1
    97    10    11    2
    98    77    82    1
    99    16    17    2
   100    31    29    1
   101    13    29    1
   102    13    14    1
   103    29    32    1
   104    29    30    1
@<TRIPOS>MOLECULE
crystal_redock_e8_er3_1.pdbqt
 102 104 0 0 0
SMALL
GASTEIGER

@<TRIPOS>ATOM
      1 C         -33.6220   10.3900   28.4930 C.3     1  UNL1        0.0890
      2 H         -34.6480   10.7320   28.3540 H       1  UNL1        0.0870
      3 N         -33.5300    9.0450   27.9450 N.am    1  UNL1       -0.3460
      4 C         -34.7800    8.2450   27.6760 C.2     1  UNL1        0.2410
      5 O         -35.8480    8.7040   27.9130 O.2     1  UNL1       -0.2710
      6 H         -32.6110    8.6720   27.7530 H       1  UNL1        0.1630
      7 C         -34.6660    6.8570   27.1040 C.3     1  UNL1        0.0920
      8 H         -35.6330    6.3590   27.1770 H       1  UNL1        0.0880
      9 N         -34.3290    6.9410   25.6800 N.am    1  UNL1       -0.3460
     10 C         -35.3310    6.6520   24.6830 C.2     1  UNL1        0.2400
     11 O         -36.4130    6.3490   25.0100 O.2     1  UNL1       -0.2710
     12 H         -33.3990    7.2000   25.3830 H       1  UNL1        0.1630
     13 C         -34.9640    6.7410   23.1690 C.3     1  UNL1        0.0860
     14 H         -35.4630    7.5670   22.6620 H       1  UNL1        0.0860
     15 N         -33.5360    6.9770   23.0430 N.am    1  UNL1       -0.3430
     16 C         -33.0520    8.3240   22.7310 C.2     1  UNL1        0.2730
     17 O         -33.8210    9.2090   22.5800 O.2     1  UNL1       -0.2660
     18 H         -32.8860    6.2140   23.1700 H       1  UNL1        0.1630
     19 C         -31.5450    8.5890   22.5960 C.ar    1  UNL1        0.1540
     20 C         -30.4990    7.6150   22.5270 C.ar    1  UNL1       -0.0170
     21 C         -29.3090    8.3670   22.4080 C.ar    1  UNL1        0.0770
     22 H         -30.5890    6.5290   22.5580 H       1  UNL1        0.0910
     23 O         -29.6440    9.6240   22.4080 O.2     1  UNL1       -0.2180
     24 N         -30.9430    9.7790   22.5170 N.ar    1  UNL1       -0.1230
     25 C         -27.8960    7.8090   22.2990 C.3     1  UNL1       -0.0290
     26 H         -27.8220    7.1780   21.4140 H       1  UNL1        0.0360
     27 H         -27.1860    8.6320   22.2190 H       1  UNL1        0.0360
     28 H         -27.6690    7.2180   23.1860 H       1  UNL1        0.0360
     29 C         -35.3370    5.4510   22.4830 C.3     1  UNL1       -0.0490
     30 H         -35.7540    5.6700   21.5000 H       1  UNL1        0.0300
     31 H         -34.4490    4.8300   22.3700 H       1  UNL1        0.0300
     32 H         -36.0780    4.9220   23.0820 H       1  UNL1        0.0300
     33 C         -33.5480    6.0760   27.8540 C.3     1  UNL1       -0.0330
     34 H         -33.2110    6.6990   28.6820 H       1  UNL1        0.0420
     35 C         -34.0920    4.7450   28.4590 C.3     1  UNL1       -0.0710
     36 H         -35.1760    4.8040   28.5520 H       1  UNL1        0.0280
     37 H         -33.8280    3.9140   27.8060 H       1  UNL1        0.0280
     38 H         -33.6520    4.5870   29.4440 H       1  UNL1        0.0280
     39 C         -32.3240    5.8140   26.9180 C.3     1  UNL1       -0.0710
     40 H         -31.6460    5.1070   27.3960 H       1  UNL1        0.0280
     41 H         -32.6730    5.4000   25.9710 H       1  UNL1        0.0280
     42 H         -31.8010    6.7520   26.7320 H       1  UNL1        0.0280
     43 C         -32.5960   11.2970   27.7540 C.2     1  UNL1        0.2400
     44 O         -31.5870   10.8290   27.3340 O.2     1  UNL1       -0.2710
     45 N         -32.8750   12.7490   27.5620 N.am    1  UNL1       -0.3550
     46 H         -33.7310   13.1570   27.9090 H       1  UNL1        0.1620
     47 C         -31.8910   13.5970   26.8560 C.3     1  UNL1        0.0130
     48 H         -31.3090   12.9560   26.1940 H       1  UNL1        0.0720
     49 C         -30.9810   14.2550   27.8690 C.3     1  UNL1       -0.0380
     50 H         -30.1840   13.5350   28.0610 H       1  UNL1        0.0360
     51 H         -30.7420   15.2350   27.4570 H       1  UNL1        0.0360
     52 C         -31.6760   14.5070   29.2240 C.3     1  UNL1        0.0180
     53 H         -32.6410   14.0060   29.1590 H       1  UNL1        0.0480
     54 H         -30.9560   14.2070   29.9860 H       1  UNL1        0.0480
     55 C         -31.9900   16.0050   29.4980 C.2     1  UNL1        0.2590
     56 O         -31.3760   16.6100   30.3150 O.2     1  UNL1       -0.2650
     57 O         -33.0300   16.6440   28.7670 O.3     1  UNL1       -0.3170
     58 C         -32.6820   17.9400   28.2720 C.3     1  UNL1        0.0520
     59 H         -32.5520   18.5670   29.1530 H       1  UNL1        0.0820
     60 H         -31.8480   17.7800   27.5880 H       1  UNL1        0.0820
     61 C         -33.8870   18.4800   27.4570 C.ar    1  UNL1       -0.0340
     62 C         -34.5340   17.6570   26.5400 C.ar    1  UNL1       -0.0750
     63 C         -35.6160   18.1430   25.8080 C.ar    1  UNL1       -0.0820
     64 H         -34.1920   16.6320   26.3950 H       1  UNL1        0.0840
     65 C         -36.0510   19.4580   25.9940 C.ar    1  UNL1       -0.0830
     66 H         -36.1220   17.4950   25.0910 H       1  UNL1        0.0830
     67 C         -35.4000   20.2760   26.9080 C.ar    1  UNL1       -0.0820
     68 H         -36.8970   19.8450   25.4260 H       1  UNL1        0.0830
     69 C         -34.3190   19.7950   27.6430 C.ar    1  UNL1       -0.0750
     70 H         -35.7400   21.3030   27.0490 H       1  UNL1        0.0830
     71 H         -33.8140   20.4430   28.3590 H       1  UNL1        0.0840
     72 C         -32.6180   14.6720   26.0510 C.3     1  UNL1       -0.0390
     73 H         -33.6680   14.3770   26.0550 H       1  UNL1        0.0360
     74 H         -32.3170   15.6210   26.4950 H       1  UNL1        0.0360
     75 C         -32.1390   14.6930   24.5220 C.3     1  UNL1       -0.0010
     76 C         -31.1670   13.4010   24.2220 C.3     1  UNL1       -0.0350
     77 C         -30.0250   13.8400   23.6400 C.3     1  UNL1        0.0850
     78 H         -30.8240   12.9660   25.1600 H       1  UNL1        0.0360
     79 H         -31.6150   12.7650   23.4580 H       1  UNL1        0.0360
     80 N         -29.9900   15.3390   23.8130 N.4     1  UNL1       -0.0490
     81 H         -29.2150   13.3960   24.2180 H       1  UNL1        0.0750
     82 H         -30.1310   13.6070   22.5810 H       1  UNL1        0.0750
     83 C         -31.4820   15.7710   24.2530 C.3     1  UNL1        0.1930
     84 H         -29.3620   15.5240   24.5830 H       1  UNL1        0.2800
     85 H         -29.7980   15.7270   22.9010 H       1  UNL1        0.2800
     86 H         -32.1560   16.2400   23.5360 H       1  UNL1        0.1290
     87 H         -32.9670   14.8610   23.8330 H       1  UNL1        0.0460
     88 O         -31.4290   16.6630   25.3680 O.3     1  UNL1       -0.3690
     89 H         -30.6780   17.2530   25.2700 H       1  UNL1        0.2120
     90 C         -33.2890   10.3450   29.9750 C.3     1  UNL1       -0.0350
     91 H         -32.6680    9.4600   30.1050 H       1  UNL1        0.0370
     92 H         -32.8890   11.3310   30.2110 H       1  UNL1        0.0370
     93 C         -34.5390   10.1460   30.8920 C.3     1  UNL1       -0.0590
     94 H         -35.4200   10.4200   30.3130 H       1  UNL1        0.0380
     95 C         -34.7070    8.6590   31.3420 C.3     1  UNL1       -0.0730
     96 H         -35.7200    8.3250   31.1210 H       1  UNL1        0.0280
     97 H         -33.9940    8.0340   30.8060 H       1  UNL1        0.0280
     98 H         -34.5250    8.5820   32.4140 H       1  UNL1        0.0280
     99 C         -34.4820   11.0790   32.1040 C.3     1  UNL1       -0.0730
    100 H         -35.0590   11.9810   31.8950 H       1  UNL1        0.0280
    101 H         -34.9020   10.5730   32.9730 H       1  UNL1        0.0280
    102 H         -33.4460   11.3490   32.3070 H       1  UNL1        0.0280
@<TRIPOS>BOND
     1    26    25    1
     2    30    29    1
     3    27    25    1
     4    25    21    1
     5    25    28    1
     6    31    29    1
     7    23    21   ar
     8    23    24   ar
     9    21    20   ar
    10    29    32    1
    11    29    13    1
    12    24    19   ar
    13    20    22    1
    14    20    19   ar
    15    17    16    2
    16    82    77    1
    17    19    16    1
    18    14    13    1
    19    16    15   am
    20    85    80    1
    21    15    13    1
    22    15    18    1
    23    13    10    1
    24    79    76    1
    25    86    83    1
    26    77    80    1
    27    77    81    1
    28    77    76    1
    29    80    83    1
    30    80    84    1
    31    87    75    1
    32    76    75    1
    33    76    78    1
    34    83    75    1
    35    83    88    1
    36    75    72    1
    37    10    11    2
    38    10     9   am
    39    66    63    1
    40    89    88    1
    41    12     9    1
    42    68    65    1
    43     9     7    1
    44    63    65   ar
    45    63    62   ar
    46    41    39    1
    47    65    67   ar
    48    72    73    1
    49    72    74    1
    50    72    47    1
    51    48    47    1
    52    64    62    1
    53    62    61   ar
    54    42    39    1
    55    47    45    1
    56    47    49    1
    57    67    70    1
    58    67    69   ar
    59    39    40    1
    60    39    33    1
    61     7     8    1
    62     7     4    1
    63     7    33    1
    64    44    43    2
    65    51    49    1
    66    61    69   ar
    67    61    58    1
    68    45    43   am
    69    45    46    1
    70    60    58    1
    71    69    71    1
    72     4     5    2
    73     4     3   am
    74     6     3    1
    75    43     1    1
    76    37    35    1
    77    33    35    1
    78    33    34    1
    79    49    50    1
    80    49    52    1
    81     3     1    1
    82    58    57    1
    83    58    59    1
    84     2     1    1
    85    35    36    1
    86    35    38    1
    87     1    90    1
    88    57    55    1
    89    53    52    1
    90    52    55    1
    91    52    54    1
    92    55    56    2
    93    90    91    1
    94    90    92    1
    95    90    93    1
    96    94    93    1
    97    97    95    1
    98    93    95    1
    99    93    99    1
   100    96    95    1
   101    95    98    1
   102   100    99    1
   103    99   102    1
   104    99   101    1
@<TRIPOS>MOLECULE
crystal_redock_e8_er3_1.pdbqt
 102 104 0 0 0
SMALL
GASTEIGER

@<TRIPOS>ATOM
      1 C         -36.1900   10.5310   25.9660 C.3     1  UNL1        0.0890
      2 H         -37.2460   10.4560   26.2300 H       1  UNL1        0.0870
      3 N         -35.4210   10.3830   27.1930 N.am    1  UNL1       -0.3460
      4 C         -36.1050    9.9920   28.4790 C.2     1  UNL1        0.2410
      5 O         -37.2770    9.8050   28.5020 O.2     1  UNL1       -0.2710
      6 H         -34.4260   10.5500   27.1520 H       1  UNL1        0.1630
      7 C         -35.2930    9.8390   29.7380 C.3     1  UNL1        0.0920
      8 H         -34.6390    8.9720   29.6390 H       1  UNL1        0.0880
      9 N         -34.4330   11.0130   29.9110 N.am    1  UNL1       -0.3460
     10 C         -33.1020   11.0200   29.3560 C.2     1  UNL1        0.2400
     11 O         -32.7060   10.0880   28.7680 O.2     1  UNL1       -0.2710
     12 H         -34.7590   11.8240   30.4170 H       1  UNL1        0.1630
     13 C         -32.1900   12.2710   29.5460 C.3     1  UNL1        0.0860
     14 H         -31.3570   12.2970   28.8440 H       1  UNL1        0.0860
     15 N         -32.9770   13.4690   29.3030 N.am    1  UNL1       -0.3430
     16 C         -32.3300   14.6540   28.7350 C.2     1  UNL1        0.2730
     17 O         -31.1750   14.6350   28.4810 O.2     1  UNL1       -0.2660
     18 H         -33.9620   13.4780   29.5260 H       1  UNL1        0.1630
     19 C         -33.1490   15.9270   28.4710 C.ar    1  UNL1        0.1540
     20 C         -34.5020   16.0040   28.0110 C.ar    1  UNL1       -0.0170
     21 C         -34.7810   17.3870   27.9330 C.ar    1  UNL1        0.0770
     22 H         -35.1780   15.1830   27.7700 H       1  UNL1        0.0910
     23 O         -33.7090   18.0200   28.3080 O.2     1  UNL1       -0.2180
     24 N         -32.7430   17.1900   28.6260 N.ar    1  UNL1       -0.1230
     25 C         -36.0960   18.0170   27.4920 C.3     1  UNL1       -0.0290
     26 H         -36.4770   18.6570   28.2880 H       1  UNL1        0.0360
     27 H         -35.9290   18.6140   26.5960 H       1  UNL1        0.0360
     28 H         -36.8210   17.2330   27.2780 H       1  UNL1        0.0360
     29 C         -31.6430   12.2890   30.9510 C.3     1  UNL1       -0.0490
     30 H         -30.5710   12.0920   30.9260 H       1  UNL1        0.0300
     31 H         -31.8230   13.2670   31.3980 H       1  UNL1        0.0300
     32 H         -32.1400   11.5210   31.5440 H       1  UNL1        0.0300
     33 C         -36.2490    9.7140   30.9600 C.3     1  UNL1       -0.0330
     34 H         -37.2240   10.0930   30.6540 H       1  UNL1        0.0420
     35 C         -36.4370    8.2240   31.3850 C.3     1  UNL1       -0.0710
     36 H         -36.6670    7.6220   30.5060 H       1  UNL1        0.0280
     37 H         -35.5200    7.8590   31.8450 H       1  UNL1        0.0280
     38 H         -37.2570    8.1510   32.0990 H       1  UNL1        0.0280
     39 C         -35.7440   10.5850   32.1550 C.3     1  UNL1       -0.0710
     40 H         -36.4160   10.4600   33.0050 H       1  UNL1        0.0280
     41 H         -34.7390   10.2680   32.4370 H       1  UNL1        0.0280
     42 H         -35.7240   11.6330   31.8580 H       1  UNL1        0.0280
     43 C         -35.7530    9.4190   24.9710 C.2     1  UNL1        0.2400
     44 O         -36.5660    8.6850   24.5090 O.2     1  UNL1       -0.2710
     45 N         -34.3200    9.2740   24.5850 N.am    1  UNL1       -0.3550
     46 H         -33.6210    9.8940   24.9670 H       1  UNL1        0.1620
     47 C         -33.9210    8.2120   23.6360 C.3     1  UNL1        0.0130
     48 H         -34.8260    7.8110   23.1810 H       1  UNL1        0.0720
     49 C         -33.1920    7.1200   24.3860 C.3     1  UNL1       -0.0380
     50 H         -32.6970    6.5190   23.6230 H       1  UNL1        0.0360
     51 H         -32.6000    7.6300   25.1460 H       1  UNL1        0.0360
     52 C         -34.1470    6.1700   25.1400 C.3     1  UNL1        0.0180
     53 H         -35.1430    6.3850   24.7540 H       1  UNL1        0.0480
     54 H         -33.7220    5.1730   25.0260 H       1  UNL1        0.0480
     55 C         -34.2150    6.4350   26.6700 C.2     1  UNL1        0.2590
     56 O         -33.9330    7.5020   27.1100 O.2     1  UNL1       -0.2650
     57 O         -34.6070    5.3830   27.5420 O.3     1  UNL1       -0.3170
     58 C         -34.9890    5.8220   28.8490 C.3     1  UNL1        0.0520
     59 H         -34.6850    6.8670   28.9100 H       1  UNL1        0.0820
     60 H         -36.0400    5.5530   28.9550 H       1  UNL1        0.0820
     61 C         -34.1680    5.0100   29.8860 C.ar    1  UNL1       -0.0340
     62 C         -33.0800    4.2480   29.4710 C.ar    1  UNL1       -0.0750
     63 C         -32.3420    3.5190   30.4020 C.ar    1  UNL1       -0.0820
     64 H         -32.8060    4.2230   28.4160 H       1  UNL1        0.0840
     65 C         -32.6980    3.5510   31.7530 C.ar    1  UNL1       -0.0830
     66 H         -31.4890    2.9240   30.0740 H       1  UNL1        0.0830
     67 C         -33.7860    4.3090   32.1620 C.ar    1  UNL1       -0.0820
     68 H         -32.1260    2.9840   32.4880 H       1  UNL1        0.0830
     69 C         -34.5250    5.0420   31.2350 C.ar    1  UNL1       -0.0750
     70 H         -34.0620    4.3300   33.2170 H       1  UNL1        0.0830
     71 H         -35.3770    5.6360   31.5650 H       1  UNL1        0.0840
     72 C         -33.0020    8.7960   22.5650 C.3     1  UNL1       -0.0390
     73 H         -33.0260    8.0820   21.7410 H       1  UNL1        0.0360
     74 H         -33.3500    9.8180   22.4100 H       1  UNL1        0.0360
     75 C         -31.4840    8.8850   23.0690 C.3     1  UNL1       -0.0010
     76 C         -31.0680   10.4550   23.3210 C.3     1  UNL1       -0.0350
     77 C         -29.9120   10.7120   22.6640 C.3     1  UNL1        0.0850
     78 H         -31.7880   11.1150   22.8380 H       1  UNL1        0.0360
     79 H         -30.8050   10.6090   24.3680 H       1  UNL1        0.0360
     80 N         -29.6750    9.5560   21.7220 N.4     1  UNL1       -0.0490
     81 H         -30.1030   11.6130   22.0800 H       1  UNL1        0.0750
     82 H         -29.1360   10.7120   23.4280 H       1  UNL1        0.0750
     83 C         -30.6730    8.3810   22.2000 C.3     1  UNL1        0.1930
     84 H         -29.9630    9.8690   20.8060 H       1  UNL1        0.2800
     85 H         -28.7240    9.2530   21.8760 H       1  UNL1        0.2800
     86 H         -30.2930    7.5240   22.7570 H       1  UNL1        0.1290
     87 H         -31.2760    8.1810   23.8750 H       1  UNL1        0.0460
     88 O         -31.3610    7.8300   21.0760 O.3     1  UNL1       -0.3690
     89 H         -31.6170    8.5380   20.4790 H       1  UNL1        0.2120
     90 C         -35.9060   11.8970   25.3640 C.3     1  UNL1       -0.0350
     91 H         -34.8400   12.0630   25.5140 H       1  UNL1        0.0370
     92 H         -36.3150   11.8580   24.3540 H       1  UNL1        0.0370
     93 C         -36.6400   13.0680   26.0920 C.3     1  UNL1       -0.0590
     94 H         -36.1160   13.2550   27.0290 H       1  UNL1        0.0380
     95 C         -36.6120   14.3900   25.2590 C.3     1  UNL1       -0.0730
     96 H         -36.7880   14.1610   24.2080 H       1  UNL1        0.0280
     97 H         -37.3900   15.0630   25.6190 H       1  UNL1        0.0280
     98 H         -35.6390   14.8680   25.3690 H       1  UNL1        0.0280
     99 C         -38.0770   12.6770   26.4450 C.3     1  UNL1       -0.0730
    100 H         -38.3470   11.7650   25.9120 H       1  UNL1        0.0280
    101 H         -38.1550   12.5070   27.5190 H       1  UNL1        0.0280
    102 H         -38.7540   13.4810   26.1560 H       1  UNL1        0.0280
@<TRIPOS>BOND
     1    89    88    1
     2    84    80    1
     3    88    83    1
     4    80    85    1
     5    80    83    1
     6    80    77    1
     7    73    72    1
     8    81    77    1
     9    83    86    1
    10    83    75    1
    11    74    72    1
    12    72    75    1
    13    72    47    1
    14    77    76    1
    15    77    82    1
    16    78    76    1
    17    75    76    1
    18    75    87    1
    19    48    47    1
    20    76    79    1
    21    50    49    1
    22    47    49    1
    23    47    45    1
    24    96    95    1
    25    92    90    1
    26    49    52    1
    27    49    51    1
    28    44    43    2
    29    45    46    1
    30    45    43   am
    31    53    52    1
    32    43     1    1
    33    54    52    1
    34    52    55    1
    35    95    98    1
    36    95    97    1
    37    95    93    1
    38    90    91    1
    39    90     1    1
    40    90    93    1
    41   100    99    1
    42     1     2    1
    43     1     3    1
    44    93    99    1
    45    93    94    1
    46   102    99    1
    47    99   101    1
    48    27    25    1
    49    55    56    2
    50    55    57    1
    51     6     3    1
    52     3     4   am
    53    28    25    1
    54    25    21    1
    55    25    26    1
    56    57    58    1
    57    22    20    1
    58    21    20   ar
    59    21    23   ar
    60    20    19   ar
    61    23    24   ar
    62    64    62    1
    63    19    24   ar
    64    19    16    1
    65     4     5    2
    66     4     7    1
    67    17    16    2
    68    16    15   am
    69    11    10    2
    70    14    13    1
    71    58    59    1
    72    58    60    1
    73    58    61    1
    74    15    18    1
    75    15    13    1
    76    10    13    1
    77    10     9   am
    78    62    61   ar
    79    62    63   ar
    80    13    29    1
    81     8     7    1
    82     7     9    1
    83     7    33    1
    84    61    69   ar
    85     9    12    1
    86    66    63    1
    87    63    65   ar
    88    36    35    1
    89    34    33    1
    90    30    29    1
    91    29    31    1
    92    29    32    1
    93    33    35    1
    94    33    39    1
    95    69    71    1
    96    69    67   ar
    97    35    37    1
    98    35    38    1
    99    65    67   ar
   100    65    68    1
   101    42    39    1
   102    39    41    1
   103    39    40    1
   104    67    70    1
@<TRIPOS>MOLECULE
crystal_redock_e8_er3_1.pdbqt
 102 104 0 0 0
SMALL
GASTEIGER

@<TRIPOS>ATOM
      1 C         -32.3510    8.8920   25.0880 C.3     1  UNL1        0.0890
      2 H         -31.3120    8.5620   25.0580 H       1  UNL1        0.0870
      3 N         -33.1880    7.7030   25.1290 N.am    1  UNL1       -0.3460
      4 C         -32.5700    6.3320   25.0160 C.2     1  UNL1        0.2410
      5 O         -31.3960    6.2120   24.8890 O.2     1  UNL1       -0.2710
      6 H         -34.1850    7.8270   25.2350 H       1  UNL1        0.1630
      7 C         -33.4510    5.1110   25.0660 C.3     1  UNL1        0.0920
      8 H         -32.8630    4.2590   25.4070 H       1  UNL1        0.0880
      9 N         -34.5210    5.3200   26.0450 N.am    1  UNL1       -0.3460
     10 C         -34.4140    4.7450   27.3640 C.2     1  UNL1        0.2400
     11 O         -33.4740    4.1090   27.6520 O.2     1  UNL1       -0.2710
     12 H         -35.3390    5.8650   25.8110 H       1  UNL1        0.1630
     13 C         -35.5580    4.9680   28.4010 C.3     1  UNL1        0.0860
     14 H         -35.5380    4.2410   29.2130 H       1  UNL1        0.0860
     15 N         -35.3920    6.2770   29.0110 N.am    1  UNL1       -0.3430
     16 C         -35.0230    6.3730   30.4250 C.2     1  UNL1        0.2730
     17 O         -34.8660    5.3910   31.0640 O.2     1  UNL1       -0.2660
     18 H         -35.5310    7.1110   28.4580 H       1  UNL1        0.1630
     19 C         -34.8430    7.7500   31.0820 C.ar    1  UNL1        0.1540
     20 C         -34.3850    8.9530   30.4570 C.ar    1  UNL1       -0.0170
     21 C         -34.4000    9.9240   31.4830 C.ar    1  UNL1        0.0770
     22 H         -34.0880    9.0990   29.4180 H       1  UNL1        0.0910
     23 O         -34.8200    9.3380   32.5650 O.2     1  UNL1       -0.2180
     24 N         -35.0850    8.0690   32.3570 N.ar    1  UNL1       -0.1230
     25 C         -33.9990   11.3870   31.3460 C.3     1  UNL1       -0.0290
     26 H         -33.1700   11.6020   32.0200 H       1  UNL1        0.0360
     27 H         -33.6920   11.5840   30.3190 H       1  UNL1        0.0360
     28 H         -34.8470   12.0220   31.5990 H       1  UNL1        0.0360
     29 C         -36.8930    4.8870   27.7060 C.3     1  UNL1       -0.0490
     30 H         -36.7580    4.4730   26.7070 H       1  UNL1        0.0300
     31 H         -37.5620    4.2450   28.2780 H       1  UNL1        0.0300
     32 H         -37.3240    5.8860   27.6300 H       1  UNL1        0.0300
     33 C         -34.0770    4.8660   23.6620 C.3     1  UNL1       -0.0330
     34 H         -34.1610    5.8330   23.1660 H       1  UNL1        0.0420
     35 C         -33.1590    3.9640   22.7790 C.3     1  UNL1       -0.0710
     36 H         -32.7540    3.1540   23.3860 H       1  UNL1        0.0280
     37 H         -33.7410    3.5470   21.9580 H       1  UNL1        0.0280
     38 H         -32.3400    4.5610   22.3790 H       1  UNL1        0.0280
     39 C         -35.5130    4.2610   23.7880 C.3     1  UNL1       -0.0710
     40 H         -36.1410    4.6480   22.9860 H       1  UNL1        0.0280
     41 H         -35.4570    3.1740   23.7140 H       1  UNL1        0.0280
     42 H         -35.9400    4.5380   24.7510 H       1  UNL1        0.0280
     43 C         -32.6560    9.7560   26.3450 C.2     1  UNL1        0.2400
     44 O         -32.5310    9.2870   27.4300 O.2     1  UNL1       -0.2710
     45 N         -33.0970   11.1730   26.1970 N.am    1  UNL1       -0.3550
     46 H         -33.2030   11.5840   25.2810 H       1  UNL1        0.1620
     47 C         -33.3820   11.9820   27.4020 C.3     1  UNL1        0.0130
     48 H         -33.5670   11.2970   28.2290 H       1  UNL1        0.0720
     49 C         -34.6060   12.8340   27.1530 C.3     1  UNL1       -0.0380
     50 H         -35.4600   12.1660   27.2770 H       1  UNL1        0.0360
     51 H         -34.4960   13.7030   27.8010 H       1  UNL1        0.0360
     52 C         -34.6790   13.3720   25.7080 C.3     1  UNL1        0.0180
     53 H         -33.8290   12.9330   25.1860 H       1  UNL1        0.0480
     54 H         -35.6940   13.1660   25.3670 H       1  UNL1        0.0480
     55 C         -34.4960   14.9120   25.6030 C.2     1  UNL1        0.2590
     56 O         -35.1020   15.6410   26.3190 O.2     1  UNL1       -0.2650
     57 O         -33.6030   15.4420   24.6310 O.3     1  UNL1       -0.3170
     58 C         -32.2350   15.4660   25.0490 C.3     1  UNL1        0.0520
     59 H         -32.0110   16.5100   25.2670 H       1  UNL1        0.0820
     60 H         -32.1530   14.7160   25.8350 H       1  UNL1        0.0820
     61 C         -31.3600   15.0160   23.8480 C.ar    1  UNL1       -0.0340
     62 C         -30.8600   13.7190   23.7980 C.ar    1  UNL1       -0.0750
     63 C         -30.0740   13.3150   22.7200 C.ar    1  UNL1       -0.0820
     64 H         -31.0840   13.0190   24.6030 H       1  UNL1        0.0840
     65 C         -29.7860   14.2150   21.6900 C.ar    1  UNL1       -0.0830
     66 H         -29.6850   12.2970   22.6820 H       1  UNL1        0.0830
     67 C         -30.2850   15.5090   21.7460 C.ar    1  UNL1       -0.0820
     68 H         -29.1730   13.9070   20.8430 H       1  UNL1        0.0830
     69 C         -31.0730   15.9170   22.8210 C.ar    1  UNL1       -0.0750
     70 H         -30.0570   16.2100   20.9420 H       1  UNL1        0.0830
     71 H         -31.4610   16.9350   22.8570 H       1  UNL1        0.0840
     72 C         -32.1890   12.8820   27.7130 C.3     1  UNL1       -0.0390
     73 H         -31.3310   12.2130   27.7820 H       1  UNL1        0.0360
     74 H         -32.2100   13.6640   26.9540 H       1  UNL1        0.0360
     75 C         -32.3440   13.6000   29.1370 C.3     1  UNL1       -0.0010
     76 C         -32.6350   15.2050   28.9260 C.3     1  UNL1       -0.0350
     77 C         -31.7590   15.9100   29.6810 C.3     1  UNL1        0.0850
     78 H         -32.3860   15.4990   27.9060 H       1  UNL1        0.0360
     79 H         -33.6050   15.4680   29.3480 H       1  UNL1        0.0360
     80 N         -30.6880   14.9450   30.1320 N.4     1  UNL1       -0.0490
     81 H         -31.3160   16.6420   29.0060 H       1  UNL1        0.0750
     82 H         -32.3250   16.2430   30.5500 H       1  UNL1        0.0750
     83 C         -31.2730   13.4680   29.8460 C.3     1  UNL1        0.1930
     84 H         -29.8930   15.0990   29.5290 H       1  UNL1        0.2800
     85 H         -30.5970   15.0680   31.1310 H       1  UNL1        0.2800
     86 H         -31.6520   12.8550   30.6640 H       1  UNL1        0.1290
     87 H         -33.0160   13.0580   29.8020 H       1  UNL1        0.0460
     88 O         -30.2880   12.6660   29.1910 O.3     1  UNL1       -0.3690
     89 H         -30.4720   11.7380   29.3540 H       1  UNL1        0.2120
     90 C         -32.6760    9.6850   23.8320 C.3     1  UNL1       -0.0350
     91 H         -33.5920    9.2430   23.4410 H       1  UNL1        0.0370
     92 H         -32.6630   10.7310   24.1390 H       1  UNL1        0.0370
     93 C         -31.6030    9.5420   22.7060 C.3     1  UNL1       -0.0590
     94 H         -31.7560   10.3560   21.9980 H       1  UNL1        0.0380
     95 C         -30.1470    9.6590   23.2610 C.3     1  UNL1       -0.0730
     96 H         -30.0290   10.6150   23.7700 H       1  UNL1        0.0280
     97 H         -29.9600    8.8480   23.9630 H       1  UNL1        0.0280
     98 H         -29.4380    9.5970   22.4350 H       1  UNL1        0.0280
     99 C         -31.7890    8.2310   21.9370 C.3     1  UNL1       -0.0730
    100 H         -32.7430    7.7800   22.2110 H       1  UNL1        0.0280
    101 H         -31.7770    8.4320   20.8660 H       1  UNL1        0.0280
    102 H         -30.9790    7.5460   22.1860 H       1  UNL1        0.0280
@<TRIPOS>BOND
     1    68    65    1
     2   101    99    1
     3    70    67    1
     4    65    67   ar
     5    65    63   ar
     6    67    69   ar
     7    99   102    1
     8    99   100    1
     9    99    93    1
    10    37    35    1
    11    94    93    1
    12    38    35    1
    13    98    95    1
    14    66    63    1
    15    93    95    1
    16    93    90    1
    17    63    62   ar
    18    35    36    1
    19    35    33    1
    20    69    71    1
    21    69    61   ar
    22    40    39    1
    23    34    33    1
    24    95    96    1
    25    95    97    1
    26    91    90    1
    27    33    39    1
    28    33     7    1
    29    41    39    1
    30    39    42    1
    31    62    61   ar
    32    62    64    1
    33    90    92    1
    34    90     1    1
    35    61    58    1
    36    57    58    1
    37    57    55    1
    38     5     4    2
    39     4     7    1
    40     4     3   am
    41    58    59    1
    42    58    60    1
    43     2     1    1
    44     7     8    1
    45     7     9    1
    46     1     3    1
    47     1    43    1
    48     3     6    1
    49    53    52    1
    50    46    45    1
    51    54    52    1
    52    55    52    1
    53    55    56    2
    54    52    49    1
    55    12     9    1
    56     9    10   am
    57    45    43   am
    58    45    47    1
    59    43    44    2
    60    30    29    1
    61    74    72    1
    62    49    50    1
    63    49    47    1
    64    49    51    1
    65    10    11    2
    66    10    13    1
    67    47    72    1
    68    47    48    1
    69    32    29    1
    70    29    31    1
    71    29    13    1
    72    72    73    1
    73    72    75    1
    74    78    76    1
    75    13    15    1
    76    13    14    1
    77    18    15    1
    78    76    75    1
    79    76    79    1
    80    76    77    1
    81    81    77    1
    82    15    16   am
    83    75    87    1
    84    75    83    1
    85    88    89    1
    86    88    83    1
    87    22    20    1
    88    84    80    1
    89    77    80    1
    90    77    82    1
    91    83    80    1
    92    83    86    1
    93    80    85    1
    94    27    25    1
    95    16    17    2
    96    16    19    1
    97    20    19   ar
    98    20    21   ar
    99    19    24   ar
   100    25    21    1
   101    25    28    1
   102    25    26    1
   103    21    23   ar
   104    24    23   ar
@<TRIPOS>MOLECULE
crystal_redock_e8_er3_1.pdbqt
 102 104 0 0 0
SMALL
GASTEIGER

@<TRIPOS>ATOM
      1 C         -34.7590   11.2150   25.3770 C.3     1  UNL1        0.0890
      2 H         -34.2830   11.6600   24.5030 H       1  UNL1        0.0870
      3 N         -34.2850    9.8440   25.4850 N.am    1  UNL1       -0.3460
      4 C         -32.9720    9.4410   24.8630 C.2     1  UNL1        0.2410
      5 O         -32.3150   10.2380   24.2790 O.2     1  UNL1       -0.2710
      6 H         -34.8610    9.1800   25.9840 H       1  UNL1        0.1630
      7 C         -32.4940    8.0180   24.9890 C.3     1  UNL1        0.0920
      8 H         -31.5350    8.0060   25.5070 H       1  UNL1        0.0880
      9 N         -33.4400    7.2550   25.8090 N.am    1  UNL1       -0.3460
     10 C         -32.9770    6.5650   26.9880 C.2     1  UNL1        0.2400
     11 O         -31.8470    6.6110   27.2900 O.2     1  UNL1       -0.2710
     12 H         -34.4170    7.2040   25.5600 H       1  UNL1        0.1630
     13 C         -33.9870    5.7520   27.8560 C.3     1  UNL1        0.0860
     14 H         -33.6410    4.7410   28.0710 H       1  UNL1        0.0860
     15 N         -34.1500    6.4170   29.1380 N.am    1  UNL1       -0.3430
     16 C         -34.6590    7.7900   29.1790 C.2     1  UNL1        0.2730
     17 O         -34.9330    8.3510   28.1750 O.2     1  UNL1       -0.2660
     18 H         -33.9110    5.9310   29.9910 H       1  UNL1        0.1630
     19 C         -34.8370    8.5050   30.5270 C.ar    1  UNL1        0.1540
     20 C         -35.2030    9.8720   30.7390 C.ar    1  UNL1       -0.0170
     21 C         -35.2300   10.0270   32.1430 C.ar    1  UNL1        0.0770
     22 H         -35.4150   10.6340   29.9900 H       1  UNL1        0.0910
     23 O         -34.9180    8.8780   32.6660 O.2     1  UNL1       -0.2180
     24 N         -34.6840    7.9740   31.7430 N.ar    1  UNL1       -0.1230
     25 C         -35.5650   11.3040   32.9030 C.3     1  UNL1       -0.0290
     26 H         -36.0360   12.0170   32.2260 H       1  UNL1        0.0360
     27 H         -36.2500   11.0720   33.7190 H       1  UNL1        0.0360
     28 H         -34.6510   11.7370   33.3080 H       1  UNL1        0.0360
     29 C         -35.3140    5.6710   27.1440 C.3     1  UNL1       -0.0490
     30 H         -36.1170    5.6040   27.8780 H       1  UNL1        0.0300
     31 H         -35.4540    6.5640   26.5340 H       1  UNL1        0.0300
     32 H         -35.3310    4.7880   26.5050 H       1  UNL1        0.0300
     33 C         -32.4030    7.3750   23.5740 C.3     1  UNL1       -0.0330
     34 H         -32.6270    8.1520   22.8440 H       1  UNL1        0.0420
     35 C         -30.9610    6.8560   23.2780 C.3     1  UNL1       -0.0710
     36 H         -30.9870    6.1790   22.4230 H       1  UNL1        0.0280
     37 H         -30.3100    7.7000   23.0540 H       1  UNL1        0.0280
     38 H         -30.5800    6.3240   24.1500 H       1  UNL1        0.0280
     39 C         -33.4600    6.2360   23.4080 C.3     1  UNL1       -0.0710
     40 H         -34.0380    6.4070   22.5000 H       1  UNL1        0.0280
     41 H         -32.9510    5.2740   23.3400 H       1  UNL1        0.0280
     42 H         -34.1280    6.2320   24.2700 H       1  UNL1        0.0280
     43 C         -34.3970   11.9690   26.6890 C.2     1  UNL1        0.2400
     44 O         -34.8410   11.5960   27.7270 O.2     1  UNL1       -0.2710
     45 N         -33.4890   13.1500   26.6530 N.am    1  UNL1       -0.3550
     46 H         -33.1020   13.4740   25.7790 H       1  UNL1        0.1620
     47 C         -33.1530   13.8550   27.9100 C.3     1  UNL1        0.0130
     48 H         -33.4200   13.2030   28.7410 H       1  UNL1        0.0720
     49 C         -33.9450   15.1410   27.9880 C.3     1  UNL1       -0.0380
     50 H         -34.7330   14.9580   28.7190 H       1  UNL1        0.0360
     51 H         -33.2100   15.9280   28.1630 H       1  UNL1        0.0360
     52 C         -34.6520   15.4910   26.6610 C.3     1  UNL1        0.0180
     53 H         -34.8350   14.5390   26.1640 H       1  UNL1        0.0480
     54 H         -35.4900   16.1330   26.9340 H       1  UNL1        0.0480
     55 C         -33.7760   16.3230   25.6840 C.2     1  UNL1        0.2590
     56 O         -33.6810   17.5010   25.8120 O.2     1  UNL1       -0.2650
     57 O         -33.0950   15.6620   24.6240 O.3     1  UNL1       -0.3170
     58 C         -31.8650   16.2850   24.2450 C.3     1  UNL1        0.0520
     59 H         -32.1410   17.0980   23.5730 H       1  UNL1        0.0820
     60 H         -31.3440   16.5020   25.1770 H       1  UNL1        0.0820
     61 C         -31.0300   15.2490   23.4460 C.ar    1  UNL1       -0.0340
     62 C         -30.3000   15.6530   22.3320 C.ar    1  UNL1       -0.0750
     63 C         -29.5500   14.7220   21.6140 C.ar    1  UNL1       -0.0820
     64 H         -30.3150   16.6980   22.0220 H       1  UNL1        0.0840
     65 C         -29.5340   13.3830   22.0120 C.ar    1  UNL1       -0.0830
     66 H         -28.9770   15.0420   20.7430 H       1  UNL1        0.0830
     67 C         -30.2670   12.9840   23.1210 C.ar    1  UNL1       -0.0820
     68 H         -28.9500   12.6490   21.4560 H       1  UNL1        0.0830
     69 C         -31.0160   13.9110   23.8430 C.ar    1  UNL1       -0.0750
     70 H         -30.2550   11.9380   23.4280 H       1  UNL1        0.0830
     71 H         -31.5880   13.5900   24.7140 H       1  UNL1        0.0840
     72 C         -31.6600   14.1720   27.9410 C.3     1  UNL1       -0.0390
     73 H         -31.3030   13.9850   26.9280 H       1  UNL1        0.0360
     74 H         -31.5840   15.1720   28.3690 H       1  UNL1        0.0360
     75 C         -30.8630   13.1800   28.9140 C.3     1  UNL1       -0.0010
     76 C         -31.7670   11.8380   29.2070 C.3     1  UNL1       -0.0350
     77 C         -31.8340   11.6400   30.5450 C.3     1  UNL1        0.0850
     78 H         -32.8040   12.0160   28.9240 H       1  UNL1        0.0360
     79 H         -31.2480   10.9500   28.8440 H       1  UNL1        0.0360
     80 N         -31.3350   12.9040   31.2030 N.4     1  UNL1       -0.0490
     81 H         -32.8940   11.5170   30.7690 H       1  UNL1        0.0750
     82 H         -31.1350   10.8310   30.7550 H       1  UNL1        0.0750
     83 C         -30.5950   13.7470   30.0420 C.3     1  UNL1        0.1930
     84 H         -32.1540   13.4150   31.4990 H       1  UNL1        0.2800
     85 H         -30.6450   12.6180   31.8830 H       1  UNL1        0.2800
     86 H         -29.5070   13.7830   29.9920 H       1  UNL1        0.1290
     87 H         -29.8340   13.0230   28.5910 H       1  UNL1        0.0460
     88 O         -31.0210   15.1100   30.0750 O.3     1  UNL1       -0.3690
     89 H         -31.9750   15.1450   30.1780 H       1  UNL1        0.2120
     90 C         -36.2690   11.2060   25.1930 C.3     1  UNL1       -0.0350
     91 H         -36.4420   10.6750   24.2580 H       1  UNL1        0.0370
     92 H         -36.6710   10.8110   26.1270 H       1  UNL1        0.0370
     93 C         -36.8870   12.6290   25.0130 C.3     1  UNL1       -0.0590
     94 H         -36.0930   13.3580   25.1780 H       1  UNL1        0.0380
     95 C         -37.4440   12.8510   23.5700 C.3     1  UNL1       -0.0730
     96 H         -37.1100   12.0400   22.9230 H       1  UNL1        0.0280
     97 H         -38.5330   12.8660   23.5990 H       1  UNL1        0.0280
     98 H         -37.0780   13.8010   23.1820 H       1  UNL1        0.0280
     99 C         -37.9710   12.8910   26.0610 C.3     1  UNL1       -0.0730
    100 H         -38.1910   13.9580   26.0980 H       1  UNL1        0.0280
    101 H         -38.8750   12.3420   25.7950 H       1  UNL1        0.0280
    102 H         -37.6200   12.5580   27.0380 H       1  UNL1        0.0280
@<TRIPOS>BOND
     1    66    63    1
     2    68    65    1
     3    63    65   ar
     4    63    62   ar
     5    65    67   ar
     6    64    62    1
     7    62    61   ar
     8    36    35    1
     9    40    39    1
    10    34    33    1
    11    96    95    1
    12    37    35    1
    13    67    70    1
    14    67    69   ar
    15    98    95    1
    16    35    33    1
    17    35    38    1
    18    41    39    1
    19    39    33    1
    20    39    42    1
    21    61    69   ar
    22    61    58    1
    23    95    97    1
    24    95    93    1
    25    59    58    1
    26    33     7    1
    27    69    71    1
    28    58    57    1
    29    58    60    1
    30    91    90    1
    31     5     4    2
    32     2     1    1
    33    57    55    1
    34     4     7    1
    35     4     3   am
    36     7     8    1
    37     7     9    1
    38    93    94    1
    39    93    90    1
    40    93    99    1
    41    90     1    1
    42    90    92    1
    43     1     3    1
    44     1    43    1
    45     3     6    1
    46    12     9    1
    47    55    56    2
    48    55    52    1
    49    46    45    1
    50   101    99    1
    51     9    10   am
    52    99   100    1
    53    99   102    1
    54    53    52    1
    55    32    29    1
    56    31    29    1
    57    45    43   am
    58    45    47    1
    59    52    54    1
    60    52    49    1
    61    43    44    2
    62    73    72    1
    63    10    11    2
    64    10    13    1
    65    29    13    1
    66    29    30    1
    67    13    14    1
    68    13    15    1
    69    47    72    1
    70    47    49    1
    71    47    48    1
    72    72    74    1
    73    72    75    1
    74    49    51    1
    75    49    50    1
    76    17    16    2
    77    87    75    1
    78    79    76    1
    79    75    76    1
    80    75    83    1
    81    78    76    1
    82    15    16   am
    83    15    18    1
    84    16    19    1
    85    76    77    1
    86    22    20    1
    87    86    83    1
    88    83    88    1
    89    83    80    1
    90    88    89    1
    91    19    20   ar
    92    19    24   ar
    93    77    82    1
    94    77    81    1
    95    77    80    1
    96    20    21   ar
    97    80    84    1
    98    80    85    1
    99    24    23   ar
   100    21    23   ar
   101    21    25    1
   102    26    25    1
   103    25    28    1
   104    25    27    1
@<TRIPOS>MOLECULE
crystal_redock_e8_er3_1.pdbqt
 102 104 0 0 0
SMALL
GASTEIGER

@<TRIPOS>ATOM
      1 C         -34.4430   10.3430   29.3130 C.3     1  UNL1        0.0890
      2 H         -35.3740   10.8820   29.1300 H       1  UNL1        0.0870
      3 N         -34.6700    8.9480   28.9640 N.am    1  UNL1       -0.3460
      4 C         -36.0680    8.4420   28.7160 C.2     1  UNL1        0.2410
      5 O         -36.9970    9.1760   28.8060 O.2     1  UNL1       -0.2710
      6 H         -33.8660    8.3390   28.8940 H       1  UNL1        0.1630
      7 C         -36.2840    6.9970   28.3500 C.3     1  UNL1        0.0920
      8 H         -36.9630    6.9400   27.5000 H       1  UNL1        0.0880
      9 N         -35.0110    6.4050   27.9280 N.am    1  UNL1       -0.3460
     10 C         -34.8230    6.0030   26.5560 C.2     1  UNL1        0.2400
     11 O         -35.6860    6.1480   25.7780 O.2     1  UNL1       -0.2710
     12 H         -34.2580    6.2720   28.5880 H       1  UNL1        0.1630
     13 C         -33.4680    5.3700   26.1130 C.3     1  UNL1        0.0860
     14 H         -33.5980    4.5020   25.4660 H       1  UNL1        0.0860
     15 N         -32.7180    6.3510   25.3460 N.am    1  UNL1       -0.3430
     16 C         -32.6570    6.2320   23.8870 C.2     1  UNL1        0.2730
     17 O         -33.2110    5.3430   23.3410 O.2     1  UNL1       -0.2660
     18 H         -32.2440    7.1060   25.8210 H       1  UNL1        0.1630
     19 C         -31.8690    7.2630   23.0630 C.ar    1  UNL1        0.1540
     20 C         -31.2910    8.4850   23.5320 C.ar    1  UNL1       -0.0170
     21 C         -30.6840    9.0600   22.3940 C.ar    1  UNL1        0.0770
     22 H         -31.3090    8.8920   24.5430 H       1  UNL1        0.0910
     23 O         -30.8930    8.2540   21.3940 O.2     1  UNL1       -0.2180
     24 N         -31.5820    7.1990   21.7600 N.ar    1  UNL1       -0.1230
     25 C         -29.9240   10.3790   22.3470 C.3     1  UNL1       -0.0290
     26 H         -29.4560   10.4950   21.3690 H       1  UNL1        0.0360
     27 H         -30.6160   11.2030   22.5170 H       1  UNL1        0.0360
     28 H         -29.1560   10.3840   23.1200 H       1  UNL1        0.0360
     29 C         -32.6810    4.9560   27.3310 C.3     1  UNL1       -0.0490
     30 H         -33.1700    4.1060   27.8070 H       1  UNL1        0.0300
     31 H         -31.6720    4.6750   27.0330 H       1  UNL1        0.0300
     32 H         -32.6350    5.7890   28.0330 H       1  UNL1        0.0300
     33 C         -36.8270    6.2240   29.5880 C.3     1  UNL1       -0.0330
     34 H         -37.3450    6.9430   30.2230 H       1  UNL1        0.0420
     35 C         -37.8630    5.1360   29.1680 C.3     1  UNL1       -0.0710
     36 H         -37.3650    4.3690   28.5750 H       1  UNL1        0.0280
     37 H         -38.2950    4.6820   30.0600 H       1  UNL1        0.0280
     38 H         -38.6540    5.5960   28.5760 H       1  UNL1        0.0280
     39 C         -35.6570    5.6030   30.4170 C.3     1  UNL1       -0.0710
     40 H         -35.8070    5.8200   31.4750 H       1  UNL1        0.0280
     41 H         -35.6390    4.5230   30.2660 H       1  UNL1        0.0280
     42 H         -34.7110    6.0310   30.0880 H       1  UNL1        0.0280
     43 C         -33.2710   10.8860   28.4470 C.2     1  UNL1        0.2400
     44 O         -32.6480   10.1410   27.7610 O.2     1  UNL1       -0.2710
     45 N         -32.9290   12.3370   28.4660 N.am    1  UNL1       -0.3550
     46 H         -33.4540   12.9800   29.0410 H       1  UNL1        0.1620
     47 C         -31.8130   12.8380   27.6360 C.3     1  UNL1        0.0130
     48 H         -31.1880   11.9870   27.3640 H       1  UNL1        0.0720
     49 C         -31.0050   13.8370   28.4350 C.3     1  UNL1       -0.0380
     50 H         -30.1740   13.2720   28.8570 H       1  UNL1        0.0360
     51 H         -30.8120   14.6680   27.7560 H       1  UNL1        0.0360
     52 C         -31.7890   14.4210   29.6300 C.3     1  UNL1        0.0180
     53 H         -32.7830   13.9790   29.5760 H       1  UNL1        0.0480
     54 H         -31.1620   14.2500   30.5060 H       1  UNL1        0.0480
     55 C         -31.9990   15.9590   29.5490 C.2     1  UNL1        0.2590
     56 O         -31.4400   16.6850   30.3050 O.2     1  UNL1       -0.2650
     57 O         -32.8800   16.4910   28.5670 O.3     1  UNL1       -0.3170
     58 C         -32.5700   17.8300   28.1710 C.3     1  UNL1        0.0520
     59 H         -32.4880   18.3990   29.0970 H       1  UNL1        0.0820
     60 H         -31.7120   17.7490   27.5030 H       1  UNL1        0.0820
     61 C         -33.7730   18.3800   27.3600 C.ar    1  UNL1       -0.0340
     62 C         -34.4470   17.5540   26.4660 C.ar    1  UNL1       -0.0750
     63 C         -35.5280   18.0480   25.7370 C.ar    1  UNL1       -0.0820
     64 H         -34.1280   16.5200   26.3360 H       1  UNL1        0.0840
     65 C         -35.9330   19.3750   25.9030 C.ar    1  UNL1       -0.0830
     66 H         -36.0540   17.3980   25.0380 H       1  UNL1        0.0830
     67 C         -35.2560   20.1970   26.7940 C.ar    1  UNL1       -0.0820
     68 H         -36.7770   19.7700   25.3380 H       1  UNL1        0.0830
     69 C         -34.1760   19.7060   27.5260 C.ar    1  UNL1       -0.0750
     70 H         -35.5730   21.2320   26.9190 H       1  UNL1        0.0830
     71 H         -33.6500   20.3580   28.2240 H       1  UNL1        0.0840
     72 C         -32.3640   13.5140   26.3820 C.3     1  UNL1       -0.0390
     73 H         -32.8250   12.7150   25.8010 H       1  UNL1        0.0360
     74 H         -32.9690   14.3450   26.7430 H       1  UNL1        0.0360
     75 C         -31.1940   14.1380   25.4820 C.3     1  UNL1       -0.0010
     76 C         -31.5320   15.7090   25.1360 C.3     1  UNL1       -0.0350
     77 C         -31.4230   15.8940   23.7980 C.3     1  UNL1        0.0850
     78 H         -32.5810   15.9190   25.3380 H       1  UNL1        0.0360
     79 H         -30.7570   16.3570   25.5460 H       1  UNL1        0.0360
     80 N         -31.3640   14.5240   23.1670 N.4     1  UNL1       -0.0490
     81 H         -32.3480   16.3850   23.4960 H       1  UNL1        0.0750
     82 H         -30.4670   16.3950   23.6500 H       1  UNL1        0.0750
     83 C         -31.0640   13.4920   24.3720 C.3     1  UNL1        0.1930
     84 H         -32.2880   14.3350   22.8040 H       1  UNL1        0.2800
     85 H         -30.5690   14.5310   22.5440 H       1  UNL1        0.2800
     86 H         -30.0680   13.0690   24.5030 H       1  UNL1        0.1290
     87 H         -30.2040   13.9200   25.8830 H       1  UNL1        0.0460
     88 O         -31.9470   12.3720   24.2930 O.3     1  UNL1       -0.3690
     89 H         -32.8070   12.6630   23.9780 H       1  UNL1        0.2120
     90 C         -34.0760   10.4330   30.7850 C.3     1  UNL1       -0.0350
     91 H         -33.3720    9.6190   30.9570 H       1  UNL1        0.0370
     92 H         -33.7650   11.4650   30.9420 H       1  UNL1        0.0370
     93 C         -35.2800   10.1830   31.7480 C.3     1  UNL1       -0.0590
     94 H         -36.1960   10.3020   31.1690 H       1  UNL1        0.0380
     95 C         -35.2740    8.7360   32.3370 C.3     1  UNL1       -0.0730
     96 H         -34.7650    8.0640   31.6460 H       1  UNL1        0.0280
     97 H         -34.7520    8.7350   33.2930 H       1  UNL1        0.0280
     98 H         -36.3000    8.3990   32.4830 H       1  UNL1        0.0280
     99 C         -35.3110   11.2270   32.8670 C.3     1  UNL1       -0.0730
    100 H         -35.4250   12.2210   32.4350 H       1  UNL1        0.0280
    101 H         -36.1490   11.0220   33.5330 H       1  UNL1        0.0280
    102 H         -34.3800   11.1810   33.4320 H       1  UNL1        0.0280
@<TRIPOS>BOND
     1    26    25    1
     2    23    24   ar
     3    23    21   ar
     4    24    19   ar
     5    25    21    1
     6    25    27    1
     7    25    28    1
     8    21    20   ar
     9    85    80    1
    10    84    80    1
    11    19    20   ar
    12    19    16    1
    13    80    77    1
    14    80    83    1
    15    17    16    2
    16    81    77    1
    17    20    22    1
    18    82    77    1
    19    77    76    1
    20    16    15   am
    21    89    88    1
    22    88    83    1
    23    83    86    1
    24    83    75    1
    25    66    63    1
    26    76    78    1
    27    76    75    1
    28    76    79    1
    29    68    65    1
    30    15    18    1
    31    15    13    1
    32    14    13    1
    33    75    87    1
    34    75    72    1
    35    63    65   ar
    36    63    62   ar
    37    11    10    2
    38    73    72    1
    39    65    67   ar
    40    13    10    1
    41    13    29    1
    42    64    62    1
    43    72    74    1
    44    72    47    1
    45    62    61   ar
    46    10     9   am
    47    67    70    1
    48    67    69   ar
    49    31    29    1
    50    29    30    1
    51    29    32    1
    52    61    69   ar
    53    61    58    1
    54    48    47    1
    55     8     7    1
    56    60    58    1
    57    69    71    1
    58    47    49    1
    59    47    45    1
    60    51    49    1
    61    44    43    2
    62     9     7    1
    63     9    12    1
    64    58    57    1
    65    58    59    1
    66     7     4    1
    67     7    33    1
    68    49    50    1
    69    49    52    1
    70    43    45   am
    71    43     1    1
    72    45    46    1
    73    57    55    1
    74    36    35    1
    75    38    35    1
    76     4     5    2
    77     4     3   am
    78     6     3    1
    79     3     1    1
    80     2     1    1
    81    35    33    1
    82    35    37    1
    83     1    90    1
    84    55    52    1
    85    55    56    2
    86    53    52    1
    87    33    34    1
    88    33    39    1
    89    52    54    1
    90    42    39    1
    91    41    39    1
    92    39    40    1
    93    90    92    1
    94    90    91    1
    95    90    93    1
    96    94    93    1
    97    96    95    1
    98    93    95    1
    99    93    99    1
   100    95    98    1
   101    95    97    1
   102   100    99    1
   103    99   102    1
   104    99   101    1
