@<TRIPOS>MOLECULE
crystal_redock_e24_er3_1.pdbqt
 102 104 0 0 0
SMALL
GASTEIGER

@<TRIPOS>ATOM
      1 C         -30.8070   14.4760   23.7210 C.3     1  UNL1        0.0890
      2 H         -29.7210   14.5010   23.6260 H       1  UNL1        0.0870
      3 N         -31.1890   13.1070   24.0330 N.am    1  UNL1       -0.3460
      4 C         -30.5410   11.9520   23.3110 C.2     1  UNL1        0.2410
      5 O         -29.7170   12.1500   22.4800 O.2     1  UNL1       -0.2710
      6 H         -31.8940   12.9600   24.7410 H       1  UNL1        0.1630
      7 C         -30.9450   10.5410   23.6500 C.3     1  UNL1        0.0920
      8 H         -30.3830   10.2080   24.5230 H       1  UNL1        0.0880
      9 N         -32.3650   10.5120   24.0110 N.am    1  UNL1       -0.3460
     10 C         -32.7640   10.7080   25.3830 C.2     1  UNL1        0.2400
     11 O         -31.9550   10.8880   26.2090 O.2     1  UNL1       -0.2710
     12 H         -33.0740   10.3560   23.3090 H       1  UNL1        0.1630
     13 C         -34.2770   10.6730   25.7610 C.3     1  UNL1        0.0860
     14 H         -34.4420   10.5250   26.8290 H       1  UNL1        0.0860
     15 N         -34.8780   11.9520   25.4210 N.am    1  UNL1       -0.3430
     16 C         -35.8870   12.5340   26.3100 C.2     1  UNL1        0.2730
     17 O         -36.2100   11.9630   27.2930 O.2     1  UNL1       -0.2660
     18 H         -34.5980   12.4310   24.5770 H       1  UNL1        0.1630
     19 C         -36.5290   13.8860   25.9630 C.ar    1  UNL1        0.1540
     20 C         -36.6950   14.4560   24.6610 C.ar    1  UNL1       -0.0170
     21 C         -37.3340   15.6960   24.8870 C.ar    1  UNL1        0.0770
     22 H         -36.3980   14.0350   23.7010 H       1  UNL1        0.0910
     23 O         -37.5100   15.8140   26.1700 O.2     1  UNL1       -0.2180
     24 N         -37.0480   14.7700   26.8200 N.ar    1  UNL1       -0.1230
     25 C         -37.7410   16.7070   23.8230 C.3     1  UNL1       -0.0290
     26 H         -37.4690   17.7100   24.1500 H       1  UNL1        0.0360
     27 H         -37.2270   16.4780   22.8890 H       1  UNL1        0.0360
     28 H         -38.8180   16.6560   23.6660 H       1  UNL1        0.0360
     29 C         -34.9620    9.5630   25.0050 C.3     1  UNL1       -0.0490
     30 H         -34.2920    8.7060   24.9320 H       1  UNL1        0.0300
     31 H         -35.8700    9.2700   25.5320 H       1  UNL1        0.0300
     32 H         -35.2180    9.9100   24.0030 H       1  UNL1        0.0300
     33 C         -30.7070    9.6230   22.4150 C.3     1  UNL1       -0.0330
     34 H         -30.6200   10.2660   21.5390 H       1  UNL1        0.0420
     35 C         -29.3710    8.8270   22.5470 C.3     1  UNL1       -0.0710
     36 H         -29.5620    7.8770   23.0460 H       1  UNL1        0.0280
     37 H         -28.9600    8.6410   21.5560 H       1  UNL1        0.0280
     38 H         -28.6590    9.4080   23.1340 H       1  UNL1        0.0280
     39 C         -31.9190    8.6630   22.1910 C.3     1  UNL1       -0.0710
     40 H         -32.8110    9.2490   21.9710 H       1  UNL1        0.0280
     41 H         -31.7050    7.9970   21.3540 H       1  UNL1        0.0280
     42 H         -32.0850    8.0710   23.0910 H       1  UNL1        0.0280
     43 C         -31.3170   15.4040   24.8600 C.2     1  UNL1        0.2400
     44 O         -30.7170   16.3940   25.1300 O.2     1  UNL1       -0.2710
     45 N         -32.5600   15.0640   25.6090 N.am    1  UNL1       -0.3550
     46 H         -33.0820   14.2290   25.3850 H       1  UNL1        0.1620
     47 C         -33.0340   15.9570   26.6880 C.3     1  UNL1        0.0130
     48 H         -32.1880   16.5610   27.0190 H       1  UNL1        0.0720
     49 C         -33.5520   15.1220   27.8370 C.3     1  UNL1       -0.0380
     50 H         -34.4890   15.5890   28.1420 H       1  UNL1        0.0360
     51 H         -33.5470   14.0930   27.4780 H       1  UNL1        0.0360
     52 C         -32.6250   15.1590   29.0710 C.3     1  UNL1        0.0180
     53 H         -32.0440   16.0760   28.9770 H       1  UNL1        0.0480
     54 H         -33.2750   15.0120   29.9340 H       1  UNL1        0.0480
     55 C         -31.5900   14.0000   29.1120 C.2     1  UNL1        0.2590
     56 O         -31.0180   13.6670   28.1260 O.2     1  UNL1       -0.2650
     57 O         -31.3420   13.3310   30.3430 O.3     1  UNL1       -0.3170
     58 C         -31.1100   11.9260   30.2050 C.3     1  UNL1        0.0520
     59 H         -30.7190   11.7900   29.1970 H       1  UNL1        0.0820
     60 H         -30.5080   11.6410   31.0670 H       1  UNL1        0.0820
     61 C         -32.4800   11.2030   30.3020 C.ar    1  UNL1       -0.0340
     62 C         -32.8780   10.3270   29.2980 C.ar    1  UNL1       -0.0750
     63 C         -34.1080    9.6770   29.3850 C.ar    1  UNL1       -0.0820
     64 H         -32.2270   10.1490   28.4420 H       1  UNL1        0.0840
     65 C         -34.9430    9.9080   30.4810 C.ar    1  UNL1       -0.0830
     66 H         -34.4170    8.9900   28.5960 H       1  UNL1        0.0830
     67 C         -34.5430   10.7860   31.4800 C.ar    1  UNL1       -0.0820
     68 H         -35.9070    9.4040   30.5580 H       1  UNL1        0.0830
     69 C         -33.3140   11.4360   31.3980 C.ar    1  UNL1       -0.0750
     70 H         -35.1980   10.9660   32.3330 H       1  UNL1        0.0830
     71 H         -33.0060   12.1230   32.1870 H       1  UNL1        0.0840
     72 C         -34.1530   16.8540   26.1630 C.3     1  UNL1       -0.0390
     73 H         -34.3480   16.5100   25.1470 H       1  UNL1        0.0360
     74 H         -34.9410   16.8040   26.9150 H       1  UNL1        0.0360
     75 C         -33.6900   18.3840   26.0640 C.3     1  UNL1       -0.0010
     76 C         -32.4910   18.6780   27.1510 C.3     1  UNL1       -0.0350
     77 C         -32.8220   19.7700   27.8800 C.3     1  UNL1        0.0850
     78 H         -32.4530   17.8790   27.8900 H       1  UNL1        0.0360
     79 H         -31.5830   18.9840   26.6310 H       1  UNL1        0.0360
     80 N         -34.2810   20.0530   27.6150 N.4     1  UNL1       -0.0490
     81 H         -32.7010   19.4720   28.9220 H       1  UNL1        0.0750
     82 H         -32.2230   20.5840   27.4740 H       1  UNL1        0.0750
     83 C         -34.6710   19.1860   26.3100 C.3     1  UNL1        0.1930
     84 H         -34.7920   19.6890   28.4070 H       1  UNL1        0.2800
     85 H         -34.3440   21.0330   27.3810 H       1  UNL1        0.2800
     86 H         -34.7820   19.6680   25.3390 H       1  UNL1        0.1290
     87 H         -33.5140   18.6960   25.0340 H       1  UNL1        0.0460
     88 O         -35.8970   18.4870   26.5320 O.3     1  UNL1       -0.3690
     89 H         -36.2830   18.2420   25.6870 H       1  UNL1        0.2120
     90 C         -31.4480   14.8830   22.4040 C.3     1  UNL1       -0.0350
     91 H         -31.6410   13.9490   21.8760 H       1  UNL1        0.0370
     92 H         -32.2770   15.5360   22.6770 H       1  UNL1        0.0370
     93 C         -30.5080   15.7240   21.4830 C.3     1  UNL1       -0.0590
     94 H         -30.7990   16.7700   21.5800 H       1  UNL1        0.0380
     95 C         -29.0090   15.6040   21.9040 C.3     1  UNL1       -0.0730
     96 H         -28.9120   15.8170   22.9680 H       1  UNL1        0.0280
     97 H         -28.6540   14.5940   21.7030 H       1  UNL1        0.0280
     98 H         -28.4130   16.3180   21.3350 H       1  UNL1        0.0280
     99 C         -30.6930   15.3360   20.0130 C.3     1  UNL1       -0.0730
    100 H         -30.9370   14.2750   19.9450 H       1  UNL1        0.0280
    101 H         -31.5040   15.9230   19.5810 H       1  UNL1        0.0280
    102 H         -29.7720   15.5330   19.4660 H       1  UNL1        0.0280
@<TRIPOS>BOND
     1   102    99    1
     2   101    99    1
     3   100    99    1
     4    99    93    1
     5    98    95    1
     6    41    39    1
     7    93    94    1
     8    93    95    1
     9    93    90    1
    10    34    33    1
    11    37    35    1
    12    97    95    1
    13    91    90    1
    14    95    96    1
    15    40    39    1
    16    39    33    1
    17    39    42    1
    18    90    92    1
    19    90     1    1
    20    33    35    1
    21    33     7    1
    22     5     4    2
    23    35    36    1
    24    35    38    1
    25    27    25    1
    26    12     9    1
    27     4     7    1
    28     4     3   am
    29     2     1    1
    30     7     9    1
    31     7     8    1
    32    28    25    1
    33    22    20    1
    34     1     3    1
    35     1    43    1
    36    25    26    1
    37    25    21    1
    38    32    29    1
    39     9    10   am
    40     3     6    1
    41    18    15    1
    42    20    21   ar
    43    20    19   ar
    44    43    44    2
    45    43    45   am
    46    21    23   ar
    47    30    29    1
    48    29    31    1
    49    29    13    1
    50    87    75    1
    51    73    72    1
    52    86    83    1
    53    10    13    1
    54    10    11    2
    55    46    45    1
    56    15    13    1
    57    15    16   am
    58    45    47    1
    59    89    88    1
    60    13    14    1
    61    19    16    1
    62    19    24   ar
    63    75    72    1
    64    75    83    1
    65    75    76    1
    66    72    47    1
    67    72    74    1
    68    23    24   ar
    69    83    88    1
    70    83    80    1
    71    16    17    2
    72    79    76    1
    73    47    48    1
    74    47    49    1
    75    76    77    1
    76    76    78    1
    77    85    80    1
    78    82    77    1
    79    51    49    1
    80    80    77    1
    81    80    84    1
    82    49    50    1
    83    49    52    1
    84    77    81    1
    85    56    55    2
    86    64    62    1
    87    66    63    1
    88    53    52    1
    89    52    55    1
    90    52    54    1
    91    55    57    1
    92    59    58    1
    93    62    63   ar
    94    62    61   ar
    95    63    65   ar
    96    58    61    1
    97    58    57    1
    98    58    60    1
    99    61    69   ar
   100    65    68    1
   101    65    67   ar
   102    69    67   ar
   103    69    71    1
   104    67    70    1
@<TRIPOS>MOLECULE
crystal_redock_e24_er3_1.pdbqt
 102 104 0 0 0
SMALL
GASTEIGER

@<TRIPOS>ATOM
      1 C         -31.1220   13.9270   24.1160 C.3     1  UNL1        0.0890
      2 H         -30.1250   13.8710   24.5550 H       1  UNL1        0.0870
      3 N         -31.6760   12.5810   24.1150 N.am    1  UNL1       -0.3460
      4 C         -31.5510   11.7040   25.3360 C.2     1  UNL1        0.2410
      5 O         -30.9990   12.1040   26.3070 O.2     1  UNL1       -0.2710
      6 H         -32.1400   12.2590   23.2770 H       1  UNL1        0.1630
      7 C         -32.1350   10.3160   25.3180 C.3     1  UNL1        0.0920
      8 H         -33.0330   10.3130   24.7010 H       1  UNL1        0.0880
      9 N         -31.1800    9.3920   24.6990 N.am    1  UNL1       -0.3460
     10 C         -31.2870    9.0800   23.2950 C.2     1  UNL1        0.2400
     11 O         -32.1350    9.5630   22.6490 O.2     1  UNL1       -0.2710
     12 H         -30.4440    8.9670   25.2440 H       1  UNL1        0.1630
     13 C         -30.2690    8.0930   22.6420 C.3     1  UNL1        0.0860
     14 H         -29.9620    7.2960   23.3180 H       1  UNL1        0.0860
     15 N         -30.9010    7.4510   21.5020 N.am    1  UNL1       -0.3430
     16 C         -31.6910    6.2350   21.7050 C.2     1  UNL1        0.2730
     17 O         -31.8100    5.7800   22.7900 O.2     1  UNL1       -0.2660
     18 H         -30.7920    7.8450   20.5780 H       1  UNL1        0.1630
     19 C         -32.3670    5.5460   20.5090 C.ar    1  UNL1        0.1540
     20 C         -32.3820    4.1460   20.2140 C.ar    1  UNL1       -0.0170
     21 C         -33.1280    4.0340   19.0190 C.ar    1  UNL1        0.0770
     22 H         -31.9220    3.3350   20.7790 H       1  UNL1        0.0910
     23 O         -33.4940    5.2350   18.6780 O.2     1  UNL1       -0.2180
     24 N         -33.0620    6.1340   19.5320 N.ar    1  UNL1       -0.1230
     25 C         -33.4450    2.7470   18.2710 C.3     1  UNL1       -0.0290
     26 H         -33.8590    2.0160   18.9640 H       1  UNL1        0.0360
     27 H         -34.1700    2.9530   17.4840 H       1  UNL1        0.0360
     28 H         -32.5320    2.3500   17.8270 H       1  UNL1        0.0360
     29 C         -29.0460    8.8520   22.1940 C.3     1  UNL1       -0.0490
     30 H         -29.0560    9.8500   22.6330 H       1  UNL1        0.0300
     31 H         -28.1510    8.3220   22.5190 H       1  UNL1        0.0300
     32 H         -29.0460    8.9330   21.1070 H       1  UNL1        0.0300
     33 C         -32.4250    9.8570   26.7770 C.3     1  UNL1       -0.0330
     34 H         -31.6400   10.2660   27.4130 H       1  UNL1        0.0420
     35 C         -33.7860   10.4220   27.2910 C.3     1  UNL1       -0.0710
     36 H         -34.1150   11.2280   26.6360 H       1  UNL1        0.0280
     37 H         -34.5320    9.6270   27.2920 H       1  UNL1        0.0280
     38 H         -33.6610   10.8050   28.3030 H       1  UNL1        0.0280
     39 C         -32.3780    8.3000   26.8930 C.3     1  UNL1       -0.0710
     40 H         -31.4200    7.9360   26.5200 H       1  UNL1        0.0280
     41 H         -32.4950    8.0090   27.9380 H       1  UNL1        0.0280
     42 H         -33.1860    7.8670   26.3040 H       1  UNL1        0.0280
     43 C         -32.0710   14.8510   24.9320 C.2     1  UNL1        0.2400
     44 O         -33.0520   15.2890   24.4220 O.2     1  UNL1       -0.2710
     45 N         -31.7620   15.1850   26.3510 N.am    1  UNL1       -0.3550
     46 H         -30.9350   14.8150   26.7970 H       1  UNL1        0.1620
     47 C         -32.6750   16.0640   27.1130 C.3     1  UNL1        0.0130
     48 H         -33.6850   15.9080   26.7340 H       1  UNL1        0.0720
     49 C         -32.2640   17.5050   26.9120 C.3     1  UNL1       -0.0380
     50 H         -31.1760   17.4950   26.8440 H       1  UNL1        0.0360
     51 H         -32.8600   17.8660   26.0730 H       1  UNL1        0.0360
     52 C         -32.6180   18.4030   28.1170 C.3     1  UNL1        0.0180
     53 H         -33.2260   17.7850   28.7770 H       1  UNL1        0.0480
     54 H         -31.6700   18.8100   28.4710 H       1  UNL1        0.0480
     55 C         -33.4990   19.6290   27.7480 C.2     1  UNL1        0.2590
     56 O         -33.1100   20.4390   26.9700 O.2     1  UNL1       -0.2650
     57 O         -34.7740   19.7810   28.3600 O.3     1  UNL1       -0.3170
     58 C         -35.8670   19.7820   27.4370 C.3     1  UNL1        0.0520
     59 H         -36.7520   20.0140   28.0290 H       1  UNL1        0.0820
     60 H         -35.5660   20.4430   26.6250 H       1  UNL1        0.0820
     61 C         -36.0160   18.3450   26.8710 C.ar    1  UNL1       -0.0340
     62 C         -36.1890   17.2690   27.7360 C.ar    1  UNL1       -0.0750
     63 C         -36.3230   15.9780   27.2280 C.ar    1  UNL1       -0.0820
     64 H         -36.2180   17.4370   28.8130 H       1  UNL1        0.0840
     65 C         -36.2820   15.7640   25.8470 C.ar    1  UNL1       -0.0830
     66 H         -36.4590   15.1380   27.9080 H       1  UNL1        0.0830
     67 C         -36.1070   16.8400   24.9880 C.ar    1  UNL1       -0.0820
     68 H         -36.3870   14.7580   25.4410 H       1  UNL1        0.0830
     69 C         -35.9740   18.1330   25.4910 C.ar    1  UNL1       -0.0750
     70 H         -36.0730   16.6700   23.9110 H       1  UNL1        0.0830
     71 H         -35.8380   18.9730   24.8100 H       1  UNL1        0.0840
     72 C         -32.6070   15.7170   28.5990 C.3     1  UNL1       -0.0390
     73 H         -32.2330   16.6150   29.0900 H       1  UNL1        0.0360
     74 H         -33.5930   15.3280   28.8520 H       1  UNL1        0.0360
     75 C         -31.5500   14.5470   28.8860 C.3     1  UNL1       -0.0010
     76 C         -32.3440   13.1500   29.2360 C.3     1  UNL1       -0.0350
     77 C         -31.8490   12.6440   30.3910 C.3     1  UNL1        0.0850
     78 H         -33.3850   13.3610   29.4750 H       1  UNL1        0.0360
     79 H         -32.0980   12.3860   28.4980 H       1  UNL1        0.0360
     80 N         -31.0220   13.7330   31.0310 N.4     1  UNL1       -0.0490
     81 H         -32.7190   12.4440   31.0170 H       1  UNL1        0.0750
     82 H         -31.1920   11.8280   30.0940 H       1  UNL1        0.0750
     83 C         -30.7840   14.8430   29.8820 C.3     1  UNL1        0.1930
     84 H         -31.5950   14.1390   31.7560 H       1  UNL1        0.2800
     85 H         -30.1320   13.3160   31.2640 H       1  UNL1        0.2800
     86 H         -29.8220   14.9190   29.3770 H       1  UNL1        0.1290
     87 H         -30.7710   14.4980   28.1250 H       1  UNL1        0.0460
     88 O         -31.0500   16.1490   30.3970 O.3     1  UNL1       -0.3690
     89 H         -31.8520   16.4940   29.9960 H       1  UNL1        0.2120
     90 C         -31.0280   14.4260   22.6840 C.3     1  UNL1       -0.0350
     91 H         -30.7950   13.5460   22.0860 H       1  UNL1        0.0370
     92 H         -31.9540   14.9750   22.5080 H       1  UNL1        0.0370
     93 C         -29.8630   15.4400   22.4490 C.3     1  UNL1       -0.0590
     94 H         -30.0200   16.2850   23.1180 H       1  UNL1        0.0380
     95 C         -28.4680   14.8210   22.7820 C.3     1  UNL1       -0.0730
     96 H         -27.8870   15.5300   23.3710 H       1  UNL1        0.0280
     97 H         -28.6040   13.9030   23.3530 H       1  UNL1        0.0280
     98 H         -27.9380   14.5980   21.8560 H       1  UNL1        0.0280
     99 C         -29.8900   15.9820   21.0170 C.3     1  UNL1       -0.0730
    100 H         -29.1160   15.4900   20.4280 H       1  UNL1        0.0280
    101 H         -30.8660   15.7850   20.5720 H       1  UNL1        0.0280
    102 H         -29.7090   17.0560   21.0320 H       1  UNL1        0.0280
@<TRIPOS>BOND
     1    27    25    1
     2    28    25    1
     3    25    26    1
     4    25    21    1
     5    23    21   ar
     6    23    24   ar
     7    21    20   ar
     8    24    19   ar
     9    20    19   ar
    10    20    22    1
    11   100    99    1
    12    19    16    1
    13   101    99    1
    14    18    15    1
    15    99   102    1
    16    99    93    1
    17    32    29    1
    18    15    16   am
    19    15    13    1
    20    16    17    2
    21    98    95    1
    22    91    90    1
    23    29    31    1
    24    29    30    1
    25    29    13    1
    26    93    90    1
    27    93    95    1
    28    93    94    1
    29    92    90    1
    30    13    10    1
    31    13    14    1
    32    11    10    2
    33    90     1    1
    34    95    97    1
    35    95    96    1
    36     6     3    1
    37    10     9   am
    38    70    67    1
    39     3     1    1
    40     3     4   am
    41     1     2    1
    42     1    43    1
    43    44    43    2
    44     9    12    1
    45     9     7    1
    46     8     7    1
    47    71    69    1
    48    43    45   am
    49    67    69   ar
    50    67    65   ar
    51     7     4    1
    52     7    33    1
    53     4     5    2
    54    68    65    1
    55    69    61   ar
    56    65    63   ar
    57    51    49    1
    58    42    39    1
    59    45    46    1
    60    45    47    1
    61    40    39    1
    62    60    58    1
    63    36    35    1
    64    48    47    1
    65    33    39    1
    66    33    35    1
    67    33    34    1
    68    50    49    1
    69    61    58    1
    70    61    62   ar
    71    39    41    1
    72    49    47    1
    73    49    52    1
    74    56    55    2
    75    47    72    1
    76    63    62   ar
    77    63    66    1
    78    35    37    1
    79    35    38    1
    80    58    59    1
    81    58    57    1
    82    62    64    1
    83    55    52    1
    84    55    57    1
    85    52    54    1
    86    52    53    1
    87    87    75    1
    88    79    76    1
    89    72    74    1
    90    72    75    1
    91    72    73    1
    92    75    76    1
    93    75    83    1
    94    76    78    1
    95    76    77    1
    96    86    83    1
    97    83    88    1
    98    83    80    1
    99    89    88    1
   100    82    77    1
   101    77    81    1
   102    77    80    1
   103    80    85    1
   104    80    84    1
@<TRIPOS>MOLECULE
crystal_redock_e24_er3_1.pdbqt
 102 104 0 0 0
SMALL
GASTEIGER

@<TRIPOS>ATOM
      1 C         -31.1070   14.1600   24.3600 C.3     1  UNL1        0.0890
      2 H         -30.1140   13.7670   24.5810 H       1  UNL1        0.0870
      3 N         -32.0610   13.0820   24.5710 N.am    1  UNL1       -0.3460
      4 C         -31.8660   12.1030   25.7010 C.2     1  UNL1        0.2410
      5 O         -30.9320   12.2010   26.4260 O.2     1  UNL1       -0.2710
      6 H         -32.8490   13.0140   23.9420 H       1  UNL1        0.1630
      7 C         -32.8670   10.9960   25.9090 C.3     1  UNL1        0.0920
      8 H         -33.0230   10.8500   26.9780 H       1  UNL1        0.0880
      9 N         -34.1570   11.3890   25.3320 N.am    1  UNL1       -0.3460
     10 C         -35.1740   11.9720   26.1720 C.2     1  UNL1        0.2400
     11 O         -34.9720   12.1320   27.3140 O.2     1  UNL1       -0.2710
     12 H         -34.3460   11.2560   24.3490 H       1  UNL1        0.1630
     13 C         -36.5450   12.3850   25.5530 C.3     1  UNL1        0.0860
     14 H         -37.3890   12.1470   26.2010 H       1  UNL1        0.0860
     15 N         -36.5620   13.8260   25.3620 N.am    1  UNL1       -0.3430
     16 C         -37.5170   14.6430   26.1130 C.2     1  UNL1        0.2730
     17 O         -38.2710   14.1310   26.8660 O.2     1  UNL1       -0.2660
     18 H         -35.9160   14.2550   24.7140 H       1  UNL1        0.1630
     19 C         -37.5440   16.1670   25.9210 C.ar    1  UNL1        0.1540
     20 C         -37.1550   16.8990   24.7550 C.ar    1  UNL1       -0.0170
     21 C         -37.3690   18.2550   25.0890 C.ar    1  UNL1        0.0770
     22 H         -36.7760   16.5070   23.8110 H       1  UNL1        0.0910
     23 O         -37.8280   18.2870   26.3050 O.2     1  UNL1       -0.2180
     24 N         -37.9390   17.0810   26.8120 N.ar    1  UNL1       -0.1230
     25 C         -37.1090   19.4570   24.1900 C.3     1  UNL1       -0.0290
     26 H         -36.2530   19.2520   23.5470 H       1  UNL1        0.0360
     27 H         -37.9880   19.6450   23.5740 H       1  UNL1        0.0360
     28 H         -36.9020   20.3330   24.8040 H       1  UNL1        0.0360
     29 C         -36.7340   11.6860   24.2310 C.3     1  UNL1       -0.0490
     30 H         -36.0650   10.8270   24.1760 H       1  UNL1        0.0300
     31 H         -37.7660   11.3490   24.1430 H       1  UNL1        0.0300
     32 H         -36.5060   12.3770   23.4190 H       1  UNL1        0.0300
     33 C         -32.3620    9.7010   25.2090 C.3     1  UNL1       -0.0330
     34 H         -31.2820    9.7930   25.0870 H       1  UNL1        0.0420
     35 C         -32.6290    8.4390   26.0860 C.3     1  UNL1       -0.0710
     36 H         -31.7290    7.8260   26.1250 H       1  UNL1        0.0280
     37 H         -32.9020    8.7490   27.0950 H       1  UNL1        0.0280
     38 H         -33.4440    7.8600   25.6510 H       1  UNL1        0.0280
     39 C         -32.9960    9.5490   23.7890 C.3     1  UNL1       -0.0710
     40 H         -33.7740    8.7860   23.8190 H       1  UNL1        0.0280
     41 H         -33.4320   10.5010   23.4810 H       1  UNL1        0.0280
     42 H         -32.2260    9.2560   23.0760 H       1  UNL1        0.0280
     43 C         -31.4890   15.3490   25.2870 C.2     1  UNL1        0.2400
     44 O         -31.0760   16.4380   25.0520 O.2     1  UNL1       -0.2710
     45 N         -32.3770   15.1310   26.4640 N.am    1  UNL1       -0.3550
     46 H         -32.7380   14.2110   26.6710 H       1  UNL1        0.1620
     47 C         -32.7320   16.2720   27.3350 C.3     1  UNL1        0.0130
     48 H         -31.9690   17.0400   27.2100 H       1  UNL1        0.0720
     49 C         -32.7680   15.8100   28.7740 C.3     1  UNL1       -0.0380
     50 H         -31.8870   16.2450   29.2460 H       1  UNL1        0.0360
     51 H         -33.7640   16.0630   29.1400 H       1  UNL1        0.0360
     52 C         -32.6280   14.2790   28.9160 C.3     1  UNL1        0.0180
     53 H         -33.4570   13.9630   29.5470 H       1  UNL1        0.0480
     54 H         -32.5400   13.8950   27.8990 H       1  UNL1        0.0480
     55 C         -31.3350   13.8340   29.6540 C.2     1  UNL1        0.2590
     56 O         -30.6440   14.6350   30.1960 O.2     1  UNL1       -0.2650
     57 O         -30.9770   12.4570   29.6660 O.3     1  UNL1       -0.3170
     58 C         -31.3220   11.7760   30.8750 C.3     1  UNL1        0.0520
     59 H         -30.5410   11.0320   31.0280 H       1  UNL1        0.0820
     60 H         -31.4830   12.5570   31.6180 H       1  UNL1        0.0820
     61 C         -32.6660   11.0360   30.6410 C.ar    1  UNL1       -0.0340
     62 C         -33.7030   11.1680   31.5600 C.ar    1  UNL1       -0.0750
     63 C         -34.9100   10.5030   31.3500 C.ar    1  UNL1       -0.0820
     64 H         -33.5700   11.7910   32.4440 H       1  UNL1        0.0840
     65 C         -35.0780    9.7020   30.2170 C.ar    1  UNL1       -0.0830
     66 H         -35.7210   10.6100   32.0710 H       1  UNL1        0.0830
     67 C         -34.0400    9.5710   29.3050 C.ar    1  UNL1       -0.0820
     68 H         -36.0190    9.1790   30.0450 H       1  UNL1        0.0830
     69 C         -32.8320   10.2350   29.5100 C.ar    1  UNL1       -0.0750
     70 H         -34.1730    8.9430   28.4240 H       1  UNL1        0.0830
     71 H         -32.0210   10.1280   28.7880 H       1  UNL1        0.0840
     72 C         -34.1030   16.8170   26.9400 C.3     1  UNL1       -0.0390
     73 H         -34.3380   16.3460   25.9850 H       1  UNL1        0.0360
     74 H         -34.7450   16.6440   27.8040 H       1  UNL1        0.0360
     75 C         -34.0630   18.3980   26.6900 C.3     1  UNL1       -0.0010
     76 C         -32.5230   18.9520   26.8510 C.3     1  UNL1       -0.0350
     77 C         -32.5240   20.0010   27.7080 C.3     1  UNL1        0.0850
     78 H         -31.9100   18.2080   27.3590 H       1  UNL1        0.0360
     79 H         -32.1830   19.3900   25.9120 H       1  UNL1        0.0360
     80 N         -33.8670   20.0070   28.3980 N.4     1  UNL1       -0.0490
     81 H         -31.7480   19.7780   28.4410 H       1  UNL1        0.0750
     82 H         -32.4430   20.8890   27.0820 H       1  UNL1        0.0750
     83 C         -34.8130   19.0240   27.5350 C.3     1  UNL1        0.1930
     84 H         -33.7220   19.5960   29.3090 H       1  UNL1        0.2800
     85 H         -34.2240   20.9490   28.3190 H       1  UNL1        0.2800
     86 H         -35.5700   19.4320   26.8640 H       1  UNL1        0.1290
     87 H         -34.6030   18.6880   25.7880 H       1  UNL1        0.0460
     88 O         -35.5140   18.1290   28.4010 O.3     1  UNL1       -0.3690
     89 H         -35.0180   17.3110   28.4840 H       1  UNL1        0.2120
     90 C         -31.1730   14.6030   22.9070 C.3     1  UNL1       -0.0350
     91 H         -31.3150   13.6880   22.3320 H       1  UNL1        0.0370
     92 H         -31.9290   15.3880   22.8790 H       1  UNL1        0.0370
     93 C         -29.8480   15.2470   22.3880 C.3     1  UNL1       -0.0590
     94 H         -29.5740   16.0430   23.0800 H       1  UNL1        0.0380
     95 C         -28.6700   14.2220   22.3490 C.3     1  UNL1       -0.0730
     96 H         -28.5620   13.8300   21.3380 H       1  UNL1        0.0280
     97 H         -27.7460   14.7190   22.6450 H       1  UNL1        0.0280
     98 H         -28.8780   13.4030   23.0360 H       1  UNL1        0.0280
     99 C         -30.0550   15.8910   21.0140 C.3     1  UNL1       -0.0730
    100 H         -30.9890   15.5320   20.5810 H       1  UNL1        0.0280
    101 H         -30.0990   16.9750   21.1240 H       1  UNL1        0.0280
    102 H         -29.2250   15.6260   20.3600 H       1  UNL1        0.0280
@<TRIPOS>BOND
     1   102    99    1
     2   100    99    1
     3    99   101    1
     4    99    93    1
     5    96    95    1
     6    91    90    1
     7    95    93    1
     8    95    97    1
     9    95    98    1
    10    93    90    1
    11    93    94    1
    12    92    90    1
    13    90     1    1
    14    42    39    1
    15    32    29    1
    16    41    39    1
    17    26    25    1
    18    27    25    1
    19    39    40    1
    20    39    33    1
    21    22    20    1
    22     6     3    1
    23    31    29    1
    24    30    29    1
    25    25    28    1
    26    25    21    1
    27    29    13    1
    28    12     9    1
    29     1     3    1
    30     1     2    1
    31     1    43    1
    32     3     4   am
    33    18    15    1
    34    20    21   ar
    35    20    19   ar
    36    44    43    2
    37    34    33    1
    38    21    23   ar
    39    33     7    1
    40    33    35    1
    41    43    45   am
    42     9     7    1
    43     9    10   am
    44    15    13    1
    45    15    16   am
    46    13    10    1
    47    13    14    1
    48    38    35    1
    49     4     7    1
    50     4     5    2
    51    87    75    1
    52     7     8    1
    53    79    76    1
    54    19    16    1
    55    19    24   ar
    56    73    72    1
    57    35    36    1
    58    35    37    1
    59    16    17    2
    60    10    11    2
    61    23    24   ar
    62    45    46    1
    63    45    47    1
    64    75    76    1
    65    75    72    1
    66    75    83    1
    67    76    78    1
    68    76    77    1
    69    86    83    1
    70    72    47    1
    71    72    74    1
    72    82    77    1
    73    48    47    1
    74    47    49    1
    75    83    80    1
    76    83    88    1
    77    77    80    1
    78    77    81    1
    79    54    52    1
    80    85    80    1
    81    80    84    1
    82    88    89    1
    83    70    67    1
    84    49    52    1
    85    49    51    1
    86    49    50    1
    87    71    69    1
    88    52    53    1
    89    52    55    1
    90    67    69   ar
    91    67    65   ar
    92    69    61   ar
    93    55    57    1
    94    55    56    2
    95    57    58    1
    96    68    65    1
    97    65    63   ar
    98    61    58    1
    99    61    62   ar
   100    58    59    1
   101    58    60    1
   102    63    62   ar
   103    63    66    1
   104    62    64    1
@<TRIPOS>MOLECULE
crystal_redock_e24_er3_1.pdbqt
 102 104 0 0 0
SMALL
GASTEIGER

@<TRIPOS>ATOM
      1 C         -32.9830   10.2480   25.4330 C.3     1  UNL1        0.0890
      2 H         -33.6560   10.3270   24.5790 H       1  UNL1        0.0870
      3 N         -32.4150    8.9080   25.4210 N.am    1  UNL1       -0.3460
      4 C         -33.1770    7.7630   24.8030 C.2     1  UNL1        0.2410
      5 O         -34.2480    7.9440   24.3240 O.2     1  UNL1       -0.2710
      6 H         -31.5040    8.7750   25.8360 H       1  UNL1        0.1630
      7 C         -32.5720    6.3840   24.7950 C.3     1  UNL1        0.0920
      8 H         -31.5040    6.4600   25.0000 H       1  UNL1        0.0880
      9 N         -33.1650    5.5830   25.8700 N.am    1  UNL1       -0.3460
     10 C         -32.7000    5.7410   27.2260 C.2     1  UNL1        0.2400
     11 O         -31.8490    6.5070   27.4700 O.2     1  UNL1       -0.2710
     12 H         -33.8980    4.9170   25.6750 H       1  UNL1        0.1630
     13 C         -33.3320    4.8840   28.3660 C.3     1  UNL1        0.0860
     14 H         -32.6930    4.8140   29.2460 H       1  UNL1        0.0860
     15 N         -34.5690    5.5130   28.7990 N.am    1  UNL1       -0.3430
     16 C         -34.9140    5.5220   30.2220 C.2     1  UNL1        0.2730
     17 O         -34.1920    5.0180   31.0100 O.2     1  UNL1       -0.2660
     18 H         -35.1820    5.9390   28.1180 H       1  UNL1        0.1630
     19 C         -36.2170    6.1860   30.6940 C.ar    1  UNL1        0.1540
     20 C         -36.5130    7.5850   30.7240 C.ar    1  UNL1       -0.0170
     21 C         -37.8280    7.6680   31.2360 C.ar    1  UNL1        0.0770
     22 H         -35.8730    8.4140   30.4210 H       1  UNL1        0.0910
     23 O         -38.2300    6.4530   31.4670 O.2     1  UNL1       -0.2180
     24 N         -37.3080    5.5700   31.1590 N.ar    1  UNL1       -0.1230
     25 C         -38.6250    8.9440   31.4710 C.3     1  UNL1       -0.0290
     26 H         -38.0340    9.8050   31.1600 H       1  UNL1        0.0360
     27 H         -39.5470    8.9080   30.8900 H       1  UNL1        0.0360
     28 H         -38.8660    9.0320   32.5300 H       1  UNL1        0.0360
     29 C         -33.6120    3.4930   27.8560 C.3     1  UNL1       -0.0490
     30 H         -34.3150    2.9950   28.5240 H       1  UNL1        0.0300
     31 H         -34.0410    3.5520   26.8560 H       1  UNL1        0.0300
     32 H         -32.6820    2.9250   27.8190 H       1  UNL1        0.0300
     33 C         -32.8570    5.7010   23.4250 C.3     1  UNL1       -0.0330
     34 H         -33.7360    6.1810   22.9950 H       1  UNL1        0.0420
     35 C         -31.6750    5.9090   22.4290 C.3     1  UNL1       -0.0710
     36 H         -31.9010    5.4090   21.4870 H       1  UNL1        0.0280
     37 H         -31.5340    6.9750   22.2500 H       1  UNL1        0.0280
     38 H         -30.7630    5.4880   22.8530 H       1  UNL1        0.0280
     39 C         -33.1790    4.1840   23.6130 C.3     1  UNL1       -0.0710
     40 H         -34.1130    3.9450   23.1050 H       1  UNL1        0.0280
     41 H         -32.3710    3.5860   23.1900 H       1  UNL1        0.0280
     42 H         -33.2760    3.9620   24.6760 H       1  UNL1        0.0280
     43 C         -31.8200   11.2790   25.3610 C.2     1  UNL1        0.2400
     44 O         -30.7530   10.9980   25.8010 O.2     1  UNL1       -0.2710
     45 N         -32.0360   12.6160   24.7370 N.am    1  UNL1       -0.3550
     46 H         -32.9380   12.8640   24.3560 H       1  UNL1        0.1620
     47 C         -30.9210   13.5840   24.6750 C.3     1  UNL1        0.0130
     48 H         -30.1070   13.1980   25.2880 H       1  UNL1        0.0720
     49 C         -31.3860   14.9180   25.2150 C.3     1  UNL1       -0.0380
     50 H         -30.6050   15.6310   24.9520 H       1  UNL1        0.0360
     51 H         -32.3990   15.0520   24.8330 H       1  UNL1        0.0360
     52 C         -31.4940   14.9360   26.7550 C.3     1  UNL1        0.0180
     53 H         -30.9400   14.0640   27.1000 H       1  UNL1        0.0480
     54 H         -31.1830   15.9350   27.0610 H       1  UNL1        0.0480
     55 C         -32.9440   14.7580   27.2840 C.2     1  UNL1        0.2590
     56 O         -33.6840   13.9860   26.7660 O.2     1  UNL1       -0.2650
     57 O         -33.3840   15.5390   28.3880 O.3     1  UNL1       -0.3170
     58 C         -34.4810   16.4060   28.0890 C.3     1  UNL1        0.0520
     59 H         -35.0950   15.8670   27.3670 H       1  UNL1        0.0820
     60 H         -34.9000   16.6950   29.0520 H       1  UNL1        0.0820
     61 C         -33.9130   17.6760   27.3990 C.ar    1  UNL1       -0.0340
     62 C         -34.3910   18.0630   26.1510 C.ar    1  UNL1       -0.0750
     63 C         -33.8810   19.2030   25.5320 C.ar    1  UNL1       -0.0820
     64 H         -35.1640   17.4740   25.6580 H       1  UNL1        0.0840
     65 C         -32.8880   19.9560   26.1640 C.ar    1  UNL1       -0.0830
     66 H         -34.2590   19.5060   24.5550 H       1  UNL1        0.0830
     67 C         -32.4120   19.5630   27.4080 C.ar    1  UNL1       -0.0820
     68 H         -32.4840   20.8490   25.6870 H       1  UNL1        0.0830
     69 C         -32.9200   18.4260   28.0320 C.ar    1  UNL1       -0.0750
     70 H         -31.6350   20.1510   27.8980 H       1  UNL1        0.0830
     71 H         -32.5420   18.1240   29.0090 H       1  UNL1        0.0840
     72 C         -30.4620   13.7520   23.2280 C.3     1  UNL1       -0.0390
     73 H         -29.5010   13.2410   23.1670 H       1  UNL1        0.0360
     74 H         -31.2980   13.4130   22.6170 H       1  UNL1        0.0360
     75 C         -30.2030   15.2900   22.8630 C.3     1  UNL1       -0.0010
     76 C         -31.2810   15.7850   21.7240 C.3     1  UNL1       -0.0350
     77 C         -30.6030   16.3690   20.7060 C.3     1  UNL1        0.0850
     78 H         -31.7510   14.9210   21.2540 H       1  UNL1        0.0360
     79 H         -31.8960   16.5940   22.1170 H       1  UNL1        0.0360
     80 N         -29.1450   16.0270   20.8930 N.4     1  UNL1       -0.0490
     81 H         -30.9680   15.8870   19.7990 H       1  UNL1        0.0750
     82 H         -30.7370   17.4410   20.8460 H       1  UNL1        0.0750
     83 C         -29.0100   15.4670   22.4010 C.3     1  UNL1        0.1930
     84 H         -28.9430   15.2740   20.2510 H       1  UNL1        0.2800
     85 H         -28.6370   16.8980   20.8260 H       1  UNL1        0.2800
     86 H         -28.5830   16.0900   23.1870 H       1  UNL1        0.1290
     87 H         -30.0990   15.9140   23.7510 H       1  UNL1        0.0460
     88 O         -28.2440   14.2610   22.4120 O.3     1  UNL1       -0.3690
     89 H         -27.7970   14.1730   23.2580 H       1  UNL1        0.2120
     90 C         -33.7620   10.4450   26.7230 C.3     1  UNL1       -0.0350
     91 H         -33.9170   11.5200   26.8050 H       1  UNL1        0.0370
     92 H         -34.6190    9.7750   26.6480 H       1  UNL1        0.0370
     93 C         -32.9760   10.0150   28.0020 C.3     1  UNL1       -0.0590
     94 H         -32.0710    9.5010   27.6770 H       1  UNL1        0.0380
     95 C         -32.5420   11.2410   28.8680 C.3     1  UNL1       -0.0730
     96 H         -32.7250   11.0260   29.9200 H       1  UNL1        0.0280
     97 H         -31.4810   11.4360   28.7160 H       1  UNL1        0.0280
     98 H         -33.1180   12.1170   28.5710 H       1  UNL1        0.0280
     99 C         -33.7890    9.0210   28.8350 C.3     1  UNL1       -0.0730
    100 H         -33.1170    8.4500   29.4780 H       1  UNL1        0.0280
    101 H         -34.5070    9.5630   29.4510 H       1  UNL1        0.0280
    102 H         -34.3210    8.3400   28.1710 H       1  UNL1        0.0280
@<TRIPOS>BOND
     1    81    77    1
     2    84    80    1
     3    77    82    1
     4    77    80    1
     5    77    76    1
     6    85    80    1
     7    80    83    1
     8    78    76    1
     9    36    35    1
    10    76    79    1
    11    76    75    1
    12    37    35    1
    13    83    88    1
    14    83    75    1
    15    83    86    1
    16    88    89    1
    17    35    38    1
    18    35    33    1
    19    74    72    1
    20    75    72    1
    21    75    87    1
    22    34    33    1
    23    40    39    1
    24    73    72    1
    25    41    39    1
    26    72    47    1
    27    33    39    1
    28    33     7    1
    29    39    42    1
    30     5     4    2
    31    46    45    1
    32    66    63    1
    33     2     1    1
    34    47    45    1
    35    47    49    1
    36    47    48    1
    37    45    43   am
    38     7     4    1
    39     7     8    1
    40     7     9    1
    41     4     3   am
    42    51    49    1
    43    50    49    1
    44    49    52    1
    45    43     1    1
    46    43    44    2
    47     3     1    1
    48     3     6    1
    49     1    90    1
    50    63    62   ar
    51    63    65   ar
    52    64    62    1
    53    12     9    1
    54    68    65    1
    55     9    10   am
    56    62    61   ar
    57    65    67   ar
    58    92    90    1
    59    90    91    1
    60    90    93    1
    61    52    54    1
    62    52    53    1
    63    52    55    1
    64    56    55    2
    65    31    29    1
    66    10    11    2
    67    10    13    1
    68    55    57    1
    69    59    58    1
    70    61    69   ar
    71    61    58    1
    72    67    70    1
    73    67    69   ar
    74    94    93    1
    75    32    29    1
    76    29    13    1
    77    29    30    1
    78    93    99    1
    79    93    95    1
    80    69    71    1
    81    58    57    1
    82    58    60    1
    83    18    15    1
    84   102    99    1
    85    13    15    1
    86    13    14    1
    87    98    95    1
    88    97    95    1
    89    15    16   am
    90    99   101    1
    91    99   100    1
    92    95    96    1
    93    16    19    1
    94    16    17    2
    95    22    20    1
    96    19    20   ar
    97    19    24   ar
    98    20    21   ar
    99    27    25    1
   100    24    23   ar
   101    26    25    1
   102    21    23   ar
   103    21    25    1
   104    25    28    1
@<TRIPOS>MOLECULE
crystal_redock_e24_er3_1.pdbqt
 102 104 0 0 0
SMALL
GASTEIGER

@<TRIPOS>ATOM
      1 C         -31.1180   13.6550   24.7080 C.3     1  UNL1        0.0890
      2 H         -30.0960   13.6300   25.0890 H       1  UNL1        0.0870
      3 N         -31.4550   12.3100   24.2690 N.am    1  UNL1       -0.3460
      4 C         -31.3450   11.1470   25.2240 C.2     1  UNL1        0.2410
      5 O         -30.9780   11.3200   26.3390 O.2     1  UNL1       -0.2710
      6 H         -31.7630   12.1840   23.3150 H       1  UNL1        0.1630
      7 C         -31.7040    9.7620   24.7550 C.3     1  UNL1        0.0920
      8 H         -30.9540    9.0570   25.1130 H       1  UNL1        0.0880
      9 N         -32.9880    9.3640   25.3420 N.am    1  UNL1       -0.3460
     10 C         -33.0150    8.5170   26.5080 C.2     1  UNL1        0.2400
     11 O         -32.0130    8.1450   26.9870 O.2     1  UNL1       -0.2710
     12 H         -33.8590    9.6760   24.9390 H       1  UNL1        0.1630
     13 C         -34.3840    8.0950   27.1260 C.3     1  UNL1        0.0860
     14 H         -34.9120    7.3600   26.5190 H       1  UNL1        0.0860
     15 N         -34.1460    7.4720   28.4180 N.am    1  UNL1       -0.3430
     16 C         -34.5560    6.0830   28.6360 C.2     1  UNL1        0.2730
     17 O         -35.0800    5.4770   27.7670 O.2     1  UNL1       -0.2660
     18 H         -33.7000    7.9990   29.1560 H       1  UNL1        0.1630
     19 C         -34.3100    5.4120   29.9960 C.ar    1  UNL1        0.1540
     20 C         -33.3140    4.4330   30.3090 C.ar    1  UNL1       -0.0170
     21 C         -33.5060    4.1450   31.6790 C.ar    1  UNL1        0.0770
     22 H         -32.5660    4.0000   29.6450 H       1  UNL1        0.0910
     23 O         -34.4970    4.8770   32.0940 O.2     1  UNL1       -0.2180
     24 N         -34.9830    5.6250   31.1300 N.ar    1  UNL1       -0.1230
     25 C         -32.7000    3.1580   32.5140 C.3     1  UNL1       -0.0290
     26 H         -31.8300    2.8280   31.9470 H       1  UNL1        0.0360
     27 H         -32.3720    3.6440   33.4330 H       1  UNL1        0.0360
     28 H         -33.3210    2.2970   32.7600 H       1  UNL1        0.0360
     29 C         -35.2590    9.3110   27.2930 C.3     1  UNL1       -0.0490
     30 H         -36.3040    9.0270   27.1620 H       1  UNL1        0.0300
     31 H         -35.1180    9.7260   28.2900 H       1  UNL1        0.0300
     32 H         -34.9900   10.0580   26.5460 H       1  UNL1        0.0300
     33 C         -31.8220    9.7540   23.2030 C.3     1  UNL1       -0.0330
     34 H         -32.0660   10.7680   22.8860 H       1  UNL1        0.0420
     35 C         -30.4670    9.3670   22.5320 C.3     1  UNL1       -0.0710
     36 H         -29.6550    9.9150   23.0100 H       1  UNL1        0.0280
     37 H         -30.2990    8.2970   22.6430 H       1  UNL1        0.0280
     38 H         -30.5010    9.6220   21.4720 H       1  UNL1        0.0280
     39 C         -32.9760    8.8100   22.7340 C.3     1  UNL1       -0.0710
     40 H         -32.7180    8.3730   21.7690 H       1  UNL1        0.0280
     41 H         -33.1160    8.0160   23.4680 H       1  UNL1        0.0280
     42 H         -33.8980    9.3830   22.6400 H       1  UNL1        0.0280
     43 C         -32.1400   14.0940   25.7950 C.2     1  UNL1        0.2400
     44 O         -33.2970   14.1450   25.5320 O.2     1  UNL1       -0.2710
     45 N         -31.6750   14.4410   27.1690 N.am    1  UNL1       -0.3550
     46 H         -30.6950   14.3970   27.4060 H       1  UNL1        0.1620
     47 C         -32.6600   14.8540   28.1920 C.3     1  UNL1        0.0130
     48 H         -33.6440   14.5180   27.8660 H       1  UNL1        0.0720
     49 C         -32.6440   16.3610   28.3210 C.3     1  UNL1       -0.0380
     50 H         -32.9640   16.5730   29.3410 H       1  UNL1        0.0360
     51 H         -31.6570   16.6750   27.9820 H       1  UNL1        0.0360
     52 C         -33.6650   17.0520   27.3910 C.3     1  UNL1        0.0180
     53 H         -34.2830   16.2520   26.9850 H       1  UNL1        0.0480
     54 H         -34.1200   17.8430   27.9880 H       1  UNL1        0.0480
     55 C         -33.0190   17.7570   26.1660 C.2     1  UNL1        0.2590
     56 O         -32.0090   17.3450   25.6960 O.2     1  UNL1       -0.2650
     57 O         -33.6430   18.9130   25.6180 O.3     1  UNL1       -0.3170
     58 C         -34.0480   19.8750   26.5970 C.3     1  UNL1        0.0520
     59 H         -33.9430   19.3770   27.5610 H       1  UNL1        0.0820
     60 H         -33.4720   20.7740   26.3820 H       1  UNL1        0.0820
     61 C         -35.5510   20.1880   26.3670 C.ar    1  UNL1       -0.0340
     62 C         -36.2770   20.8670   27.3390 C.ar    1  UNL1       -0.0750
     63 C         -37.6270   21.1480   27.1330 C.ar    1  UNL1       -0.0820
     64 H         -35.7900   21.1790   28.2630 H       1  UNL1        0.0840
     65 C         -38.2510   20.7440   25.9490 C.ar    1  UNL1       -0.0830
     66 H         -38.1930   21.6830   27.8960 H       1  UNL1        0.0830
     67 C         -37.5230   20.0630   24.9830 C.ar    1  UNL1       -0.0820
     68 H         -39.3060   20.9610   25.7800 H       1  UNL1        0.0830
     69 C         -36.1730   19.7820   25.1840 C.ar    1  UNL1       -0.0750
     70 H         -38.0130   19.7480   24.0620 H       1  UNL1        0.0830
     71 H         -35.6070   19.2480   24.4210 H       1  UNL1        0.0840
     72 C         -32.3030   14.2240   29.5370 C.3     1  UNL1       -0.0390
     73 H         -31.4810   14.8240   29.9290 H       1  UNL1        0.0360
     74 H         -33.2420   14.1610   30.0860 H       1  UNL1        0.0360
     75 C         -31.7550   12.7290   29.3630 C.3     1  UNL1       -0.0010
     76 C         -33.0150   11.6910   29.1590 C.3     1  UNL1       -0.0350
     77 C         -32.8860   10.6700   30.0390 C.3     1  UNL1        0.0850
     78 H         -33.9460   12.1710   29.4590 H       1  UNL1        0.0360
     79 H         -32.9420   11.2010   28.1880 H       1  UNL1        0.0360
     80 N         -31.8380   11.0820   31.0440 N.4     1  UNL1       -0.0490
     81 H         -33.8510   10.5960   30.5410 H       1  UNL1        0.0750
     82 H         -32.5090    9.8300   29.4570 H       1  UNL1        0.0750
     83 C         -31.0810   12.3540   30.3990 C.3     1  UNL1        0.1930
     84 H         -32.3350   11.3870   31.8680 H       1  UNL1        0.2800
     85 H         -31.1830   10.3150   31.1040 H       1  UNL1        0.2800
     86 H         -30.0890   12.2450   29.9610 H       1  UNL1        0.1290
     87 H         -30.9410   12.6680   28.6410 H       1  UNL1        0.0460
     88 O         -30.9580   13.3970   31.3680 O.3     1  UNL1       -0.3690
     89 H         -30.4320   13.0870   32.1080 H       1  UNL1        0.2120
     90 C         -31.2000   14.6000   23.5190 C.3     1  UNL1       -0.0350
     91 H         -32.1740   14.4130   23.0690 H       1  UNL1        0.0370
     92 H         -30.9640   15.5870   23.9170 H       1  UNL1        0.0370
     93 C         -30.1390   14.3060   22.4110 C.3     1  UNL1       -0.0590
     94 H         -30.0620   13.2240   22.3050 H       1  UNL1        0.0380
     95 C         -30.5590   14.8910   21.0240 C.3     1  UNL1       -0.0730
     96 H         -30.0150   14.3750   20.2330 H       1  UNL1        0.0280
     97 H         -31.6290   14.7510   20.8790 H       1  UNL1        0.0280
     98 H         -30.3240   15.9540   20.9920 H       1  UNL1        0.0280
     99 C         -28.7590   14.8220   22.8240 C.3     1  UNL1       -0.0730
    100 H         -28.4430   14.3220   23.7410 H       1  UNL1        0.0280
    101 H         -28.0400   14.6140   22.0320 H       1  UNL1        0.0280
    102 H         -28.8090   15.8970   22.9950 H       1  UNL1        0.0280
@<TRIPOS>BOND
     1    96    95    1
     2    97    95    1
     3    98    95    1
     4    95    93    1
     5    38    35    1
     6    40    39    1
     7   101    99    1
     8    94    93    1
     9    93    99    1
    10    93    90    1
    11    35    37    1
    12    35    36    1
    13    35    33    1
    14    42    39    1
    15    39    33    1
    16    39    41    1
    17    99   102    1
    18    99   100    1
    19    34    33    1
    20    91    90    1
    21    33     7    1
    22     6     3    1
    23    90    92    1
    24    90     1    1
    25    70    67    1
    26     3     1    1
    27     3     4   am
    28    71    69    1
    29     1     2    1
    30     1    43    1
    31     7     8    1
    32     7     4    1
    33     7     9    1
    34    12     9    1
    35    67    69   ar
    36    67    65   ar
    37    69    61   ar
    38     4     5    2
    39     9    10   am
    40    44    43    2
    41    57    55    1
    42    57    58    1
    43    56    55    2
    44    68    65    1
    45    43    45   am
    46    65    63   ar
    47    55    52    1
    48    61    58    1
    49    61    62   ar
    50    60    58    1
    51    10    11    2
    52    10    13    1
    53    14    13    1
    54    32    29    1
    55    58    59    1
    56    53    52    1
    57    13    29    1
    58    13    15    1
    59    63    62   ar
    60    63    66    1
    61    30    29    1
    62    45    46    1
    63    45    47    1
    64    29    31    1
    65    62    64    1
    66    52    54    1
    67    52    49    1
    68    17    16    2
    69    48    47    1
    70    51    49    1
    71    79    76    1
    72    47    49    1
    73    47    72    1
    74    49    50    1
    75    15    16   am
    76    15    18    1
    77    16    19    1
    78    87    75    1
    79    76    75    1
    80    76    78    1
    81    76    77    1
    82    75    72    1
    83    75    83    1
    84    82    77    1
    85    72    73    1
    86    72    74    1
    87    22    20    1
    88    86    83    1
    89    19    20   ar
    90    19    24   ar
    91    77    81    1
    92    77    80    1
    93    20    21   ar
    94    83    80    1
    95    83    88    1
    96    80    85    1
    97    80    84    1
    98    24    23   ar
    99    88    89    1
   100    21    23   ar
   101    21    25    1
   102    26    25    1
   103    25    28    1
   104    25    27    1
@<TRIPOS>MOLECULE
crystal_redock_e24_er3_1.pdbqt
 102 104 0 0 0
SMALL
GASTEIGER

@<TRIPOS>ATOM
      1 C         -31.3130   14.3540   24.0810 C.3     1  UNL1        0.0890
      2 H         -30.3430   14.4970   24.5590 H       1  UNL1        0.0870
      3 N         -31.4650   12.9310   23.8180 N.am    1  UNL1       -0.3460
      4 C         -31.2860   11.9270   24.9300 C.2     1  UNL1        0.2410
      5 O         -31.0160   12.2890   26.0270 O.2     1  UNL1       -0.2710
      6 H         -31.6930   12.6430   22.8770 H       1  UNL1        0.1630
      7 C         -31.4530   10.4580   24.6410 C.3     1  UNL1        0.0920
      8 H         -30.7980    9.8870   25.2990 H       1  UNL1        0.0880
      9 N         -32.8300   10.0550   24.9430 N.am    1  UNL1       -0.3460
     10 C         -33.1250    9.3650   26.1750 C.2     1  UNL1        0.2400
     11 O         -32.2670    9.1270   26.9340 O.2     1  UNL1       -0.2710
     12 H         -33.5810   10.2520   24.2970 H       1  UNL1        0.1630
     13 C         -34.5920    8.9350   26.4890 C.3     1  UNL1        0.0860
     14 H         -34.7360    8.6600   27.5340 H       1  UNL1        0.0860
     15 N         -35.4780   10.0570   26.2280 N.am    1  UNL1       -0.3430
     16 C         -35.6500   11.0930   27.2490 C.2     1  UNL1        0.2730
     17 O         -35.0720   11.0140   28.2770 O.2     1  UNL1       -0.2660
     18 H         -35.9690   10.1160   25.3470 H       1  UNL1        0.1630
     19 C         -36.5820   12.2860   26.9860 C.ar    1  UNL1        0.1540
     20 C         -36.2680   13.4900   26.2790 C.ar    1  UNL1       -0.0170
     21 C         -37.4560   14.2540   26.3180 C.ar    1  UNL1        0.0770
     22 H         -35.3240   13.7670   25.8110 H       1  UNL1        0.0910
     23 O         -38.3420   13.5610   26.9700 O.2     1  UNL1       -0.2180
     24 N         -37.8560   12.4090   27.3710 N.ar    1  UNL1       -0.1230
     25 C         -37.6600   15.6340   25.7060 C.3     1  UNL1       -0.0290
     26 H         -38.1790   16.2740   26.4190 H       1  UNL1        0.0360
     27 H         -36.6920   16.0700   25.4640 H       1  UNL1        0.0360
     28 H         -38.2560   15.5450   24.7980 H       1  UNL1        0.0360
     29 C         -34.9720    7.7640   25.6200 C.3     1  UNL1       -0.0490
     30 H         -34.0710    7.2340   25.3100 H       1  UNL1        0.0300
     31 H         -35.6150    7.0880   26.1820 H       1  UNL1        0.0300
     32 H         -35.5030    8.1220   24.7380 H       1  UNL1        0.0300
     33 C         -31.1540   10.1880   23.1370 C.3     1  UNL1       -0.0330
     34 H         -31.3670   11.1060   22.5900 H       1  UNL1        0.0420
     35 C         -29.6490    9.8450   22.9100 C.3     1  UNL1       -0.0710
     36 H         -29.5670    9.0300   22.1910 H       1  UNL1        0.0280
     37 H         -29.1300   10.7220   22.5260 H       1  UNL1        0.0280
     38 H         -29.1990    9.5410   23.8550 H       1  UNL1        0.0280
     39 C         -32.0830    9.0640   22.5750 C.3     1  UNL1       -0.0710
     40 H         -32.7260    9.4790   21.7990 H       1  UNL1        0.0280
     41 H         -31.4720    8.2650   22.1530 H       1  UNL1        0.0280
     42 H         -32.6970    8.6630   23.3820 H       1  UNL1        0.0280
     43 C         -32.4890   14.8190   24.9870 C.2     1  UNL1        0.2400
     44 O         -33.5430   15.0740   24.5010 O.2     1  UNL1       -0.2710
     45 N         -32.3020   14.9390   26.4610 N.am    1  UNL1       -0.3550
     46 H         -31.4120   14.7210   26.8850 H       1  UNL1        0.1620
     47 C         -33.4310   15.3820   27.3080 C.3     1  UNL1        0.0130
     48 H         -34.2880   14.7470   27.0840 H       1  UNL1        0.0720
     49 C         -33.7580   16.8240   26.9920 C.3     1  UNL1       -0.0380
     50 H         -34.0960   16.8280   25.9550 H       1  UNL1        0.0360
     51 H         -34.4280   17.1540   27.7860 H       1  UNL1        0.0360
     52 C         -32.5210   17.7460   27.0510 C.3     1  UNL1        0.0180
     53 H         -31.7190   17.1380   27.4690 H       1  UNL1        0.0480
     54 H         -32.4200   18.1690   26.0520 H       1  UNL1        0.0480
     55 C         -32.6870   18.9550   28.0130 C.2     1  UNL1        0.2590
     56 O         -32.1200   18.9780   29.0570 O.2     1  UNL1       -0.2650
     57 O         -33.5380   20.0320   27.6390 O.3     1  UNL1       -0.3170
     58 C         -34.8720   19.9230   28.1430 C.3     1  UNL1        0.0520
     59 H         -34.9790   18.8900   28.4740 H       1  UNL1        0.0820
     60 H         -34.9850   20.7380   28.8580 H       1  UNL1        0.0820
     61 C         -35.8510   20.1650   26.9640 C.ar    1  UNL1       -0.0340
     62 C         -36.9910   20.9410   27.1530 C.ar    1  UNL1       -0.0750
     63 C         -37.8710   21.1580   26.0940 C.ar    1  UNL1       -0.0820
     64 H         -37.1950   21.3770   28.1310 H       1  UNL1        0.0840
     65 C         -37.6090   20.5940   24.8420 C.ar    1  UNL1       -0.0830
     66 H         -38.7620   21.7670   26.2450 H       1  UNL1        0.0830
     67 C         -36.4730   19.8190   24.6590 C.ar    1  UNL1       -0.0820
     68 H         -38.2920   20.7600   24.0090 H       1  UNL1        0.0830
     69 C         -35.5890   19.6010   25.7140 C.ar    1  UNL1       -0.0750
     70 H         -36.2720   19.3790   23.6820 H       1  UNL1        0.0830
     71 H         -34.6980   18.9910   25.5630 H       1  UNL1        0.0840
     72 C         -33.0490   15.2570   28.7820 C.3     1  UNL1       -0.0390
     73 H         -32.8750   16.2780   29.1240 H       1  UNL1        0.0360
     74 H         -33.8390   14.6580   29.2360 H       1  UNL1        0.0360
     75 C         -31.6770   14.4540   28.9730 C.3     1  UNL1       -0.0010
     76 C         -31.9920   12.9150   29.4620 C.3     1  UNL1       -0.0350
     77 C         -31.2500   12.6460   30.5620 C.3     1  UNL1        0.0850
     78 H         -33.0180   12.8400   29.8210 H       1  UNL1        0.0360
     79 H         -31.6200   12.2050   28.7230 H       1  UNL1        0.0360
     80 N         -30.7070   13.9630   31.0610 N.4     1  UNL1       -0.0490
     81 H         -31.9520   12.2500   31.2970 H       1  UNL1        0.0750
     82 H         -30.4230   12.0300   30.2120 H       1  UNL1        0.0750
     83 C         -30.9240   15.0180   29.8580 C.3     1  UNL1        0.1930
     84 H         -31.2890   14.2370   31.8390 H       1  UNL1        0.2800
     85 H         -29.7140   13.8290   31.1960 H       1  UNL1        0.2800
     86 H         -30.0850   15.3280   29.2360 H       1  UNL1        0.1290
     87 H         -31.0050   14.5760   28.1240 H       1  UNL1        0.0460
     88 O         -31.4960   16.2270   30.3600 O.3     1  UNL1       -0.3690
     89 H         -31.8100   16.7610   29.6270 H       1  UNL1        0.2120
     90 C         -31.3530   15.1090   22.7620 C.3     1  UNL1       -0.0350
     91 H         -32.2900   14.8150   22.2900 H       1  UNL1        0.0370
     92 H         -31.1780   16.1530   23.0220 H       1  UNL1        0.0370
     93 C         -30.2140   14.7040   21.7730 C.3     1  UNL1       -0.0590
     94 H         -30.2420   13.6200   21.6630 H       1  UNL1        0.0380
     95 C         -30.4140   15.3310   20.3560 C.3     1  UNL1       -0.0730
     96 H         -30.8660   14.5940   19.6920 H       1  UNL1        0.0280
     97 H         -31.0680   16.1990   20.4310 H       1  UNL1        0.0280
     98 H         -29.4480   15.6370   19.9550 H       1  UNL1        0.0280
     99 C         -28.8410   15.0690   22.3410 C.3     1  UNL1       -0.0730
    100 H         -28.3260   15.7360   21.6490 H       1  UNL1        0.0280
    101 H         -28.9660   15.5690   23.3020 H       1  UNL1        0.0280
    102 H         -28.2520   14.1620   22.4780 H       1  UNL1        0.0280
@<TRIPOS>BOND
     1    96    95    1
     2    98    95    1
     3    95    97    1
     4    95    93    1
     5   100    99    1
     6    94    93    1
     7    93    99    1
     8    93    90    1
     9    40    39    1
    10    41    39    1
    11    36    35    1
    12    91    90    1
    13    99   102    1
    14    99   101    1
    15    37    35    1
    16    39    33    1
    17    39    42    1
    18    34    33    1
    19    90    92    1
    20    90     1    1
    21     6     3    1
    22    35    33    1
    23    35    38    1
    24    33     7    1
    25    70    67    1
    26     3     1    1
    27     3     4   am
    28    68    65    1
    29     1     2    1
    30     1    43    1
    31    12     9    1
    32    44    43    2
    33     7     4    1
    34     7     9    1
    35     7     8    1
    36    67    65   ar
    37    67    69   ar
    38    32    29    1
    39    28    25    1
    40    65    63   ar
    41     4     5    2
    42     9    10   am
    43    43    45   am
    44    30    29    1
    45    18    15    1
    46    27    25    1
    47    71    69    1
    48    29    31    1
    49    29    13    1
    50    25    21    1
    51    25    26    1
    52    69    61   ar
    53    22    20    1
    54    50    49    1
    55    54    52    1
    56    63    66    1
    57    63    62   ar
    58    10    13    1
    59    10    11    2
    60    15    13    1
    61    15    16   am
    62    20    21   ar
    63    20    19   ar
    64    21    23   ar
    65    45    46    1
    66    45    47    1
    67    13    14    1
    68    61    62   ar
    69    61    58    1
    70    23    24   ar
    71    19    16    1
    72    19    24   ar
    73    49    52    1
    74    49    47    1
    75    49    51    1
    76    52    53    1
    77    52    55    1
    78    48    47    1
    79    62    64    1
    80    16    17    2
    81    47    72    1
    82    57    55    1
    83    57    58    1
    84    55    56    2
    85    87    75    1
    86    58    59    1
    87    58    60    1
    88    79    76    1
    89    72    75    1
    90    72    73    1
    91    72    74    1
    92    75    76    1
    93    75    83    1
    94    86    83    1
    95    76    78    1
    96    76    77    1
    97    89    88    1
    98    83    88    1
    99    83    80    1
   100    82    77    1
   101    77    80    1
   102    77    81    1
   103    80    85    1
   104    80    84    1
@<TRIPOS>MOLECULE
crystal_redock_e24_er3_1.pdbqt
 102 104 0 0 0
SMALL
GASTEIGER

@<TRIPOS>ATOM
      1 C         -31.3110   15.0140   24.0100 C.3     1  UNL1        0.0890
      2 H         -30.2970   15.0850   24.4050 H       1  UNL1        0.0870
      3 N         -31.6560   13.6020   23.9380 N.am    1  UNL1       -0.3460
      4 C         -31.3320   12.6790   25.0850 C.2     1  UNL1        0.2410
      5 O         -30.7900   13.0950   26.0560 O.2     1  UNL1       -0.2710
      6 H         -32.1140   13.2680   23.1020 H       1  UNL1        0.1630
      7 C         -31.7010   11.2220   24.9960 C.3     1  UNL1        0.0920
      8 H         -31.1420   10.6640   25.7470 H       1  UNL1        0.0880
      9 N         -33.1250   11.0580   25.3040 N.am    1  UNL1       -0.3460
     10 C         -33.5280   10.5140   26.5780 C.2     1  UNL1        0.2400
     11 O         -32.7200   10.2010   27.3650 O.2     1  UNL1       -0.2710
     12 H         -33.8330   11.3220   24.6350 H       1  UNL1        0.1630
     13 C         -35.0450   10.3390   26.8990 C.3     1  UNL1        0.0860
     14 H         -35.5740    9.7660   26.1380 H       1  UNL1        0.0860
     15 N         -35.1810    9.6030   28.1450 N.am    1  UNL1       -0.3430
     16 C         -35.4700    8.1670   28.1060 C.2     1  UNL1        0.2730
     17 O         -35.5930    7.6150   27.0680 O.2     1  UNL1       -0.2660
     18 H         -35.0770   10.0830   29.0270 H       1  UNL1        0.1630
     19 C         -35.6150    7.3750   29.4150 C.ar    1  UNL1        0.1540
     20 C         -34.7300    6.3710   29.9200 C.ar    1  UNL1       -0.0170
     21 C         -35.3070    5.9600   31.1420 C.ar    1  UNL1        0.0770
     22 H         -33.8100    5.9970   29.4690 H       1  UNL1        0.0910
     23 O         -36.3940    6.6540   31.3100 O.2     1  UNL1       -0.2180
     24 N         -36.5950    7.4870   30.3150 N.ar    1  UNL1       -0.1230
     25 C         -34.7560    4.9010   32.0880 C.3     1  UNL1       -0.0290
     26 H         -35.5730    4.2780   32.4520 H       1  UNL1        0.0360
     27 H         -34.0350    4.2800   31.5570 H       1  UNL1        0.0360
     28 H         -34.2650    5.3860   32.9320 H       1  UNL1        0.0360
     29 C         -35.6940   11.6940   27.0270 C.3     1  UNL1       -0.0490
     30 H         -35.7540   11.9700   28.0800 H       1  UNL1        0.0300
     31 H         -35.0980   12.4340   26.4920 H       1  UNL1        0.0300
     32 H         -36.6970   11.6590   26.6020 H       1  UNL1        0.0300
     33 C         -31.4230   10.7040   23.5540 C.3     1  UNL1       -0.0330
     34 H         -31.6930   11.5000   22.8610 H       1  UNL1        0.0420
     35 C         -29.9080   10.3940   23.3440 C.3     1  UNL1       -0.0710
     36 H         -29.7710    9.8800   22.3930 H       1  UNL1        0.0280
     37 H         -29.3440   11.3260   23.3380 H       1  UNL1        0.0280
     38 H         -29.5510    9.7590   24.1550 H       1  UNL1        0.0280
     39 C         -32.3070    9.4580   23.2270 C.3     1  UNL1       -0.0710
     40 H         -32.7970    9.6020   22.2640 H       1  UNL1        0.0280
     41 H         -31.6780    8.5670   23.1860 H       1  UNL1        0.0280
     42 H         -33.0610    9.3330   24.0040 H       1  UNL1        0.0280
     43 C         -32.3470   15.7310   24.9220 C.2     1  UNL1        0.2400
     44 O         -33.4780   15.8250   24.5710 O.2     1  UNL1       -0.2710
     45 N         -31.9300   16.2940   26.2380 N.am    1  UNL1       -0.3550
     46 H         -30.9720   16.2170   26.5490 H       1  UNL1        0.1620
     47 C         -32.9270   16.9720   27.0950 C.3     1  UNL1        0.0130
     48 H         -33.8920   16.9230   26.5890 H       1  UNL1        0.0720
     49 C         -32.5200   18.4150   27.2910 C.3     1  UNL1       -0.0380
     50 H         -32.9980   18.7330   28.2170 H       1  UNL1        0.0360
     51 H         -31.4330   18.4270   27.2060 H       1  UNL1        0.0360
     52 C         -33.0550   19.3450   26.1810 C.3     1  UNL1        0.0180
     53 H         -32.4790   20.2660   26.2640 H       1  UNL1        0.0480
     54 H         -33.0180   18.7590   25.2620 H       1  UNL1        0.0480
     55 C         -34.5430   19.7530   26.3690 C.2     1  UNL1        0.2590
     56 O         -34.9120   20.2300   27.3920 O.2     1  UNL1       -0.2650
     57 O         -35.4640   19.5370   25.3070 O.3     1  UNL1       -0.3170
     58 C         -36.7500   19.0810   25.7350 C.3     1  UNL1        0.0520
     59 H         -36.8280   19.3630   26.7850 H       1  UNL1        0.0820
     60 H         -37.4600   19.4780   25.0100 H       1  UNL1        0.0820
     61 C         -36.7650   17.5320   25.6400 C.ar    1  UNL1       -0.0340
     62 C         -37.0550   16.9120   24.4290 C.ar    1  UNL1       -0.0750
     63 C         -37.0690   15.5200   24.3430 C.ar    1  UNL1       -0.0820
     64 H         -37.2710   17.5150   23.5470 H       1  UNL1        0.0840
     65 C         -36.7940   14.7490   25.4760 C.ar    1  UNL1       -0.0830
     66 H         -37.2940   15.0370   23.3920 H       1  UNL1        0.0830
     67 C         -36.5100   15.3730   26.6830 C.ar    1  UNL1       -0.0820
     68 H         -36.8030   13.6600   25.4170 H       1  UNL1        0.0830
     69 C         -36.4920   16.7630   26.7720 C.ar    1  UNL1       -0.0750
     70 H         -36.2980   14.7680   27.5650 H       1  UNL1        0.0830
     71 H         -36.2670   17.2450   27.7240 H       1  UNL1        0.0840
     72 C         -33.0020   16.2740   28.4510 C.3     1  UNL1       -0.0390
     73 H         -32.6590   17.0120   29.1770 H       1  UNL1        0.0360
     74 H         -34.0150   15.8760   28.5170 H       1  UNL1        0.0360
     75 C         -31.9980   15.0290   28.5340 C.3     1  UNL1       -0.0010
     76 C         -32.8520   13.6250   28.6050 C.3     1  UNL1       -0.0350
     77 C         -32.4040   12.8950   29.6540 C.3     1  UNL1        0.0850
     78 H         -33.8900   13.8320   28.8620 H       1  UNL1        0.0360
     79 H         -32.6180   13.0010   27.7420 H       1  UNL1        0.0360
     80 N         -31.5520   13.8110   30.4980 N.4     1  UNL1       -0.0490
     81 H         -33.2960   12.6180   30.2170 H       1  UNL1        0.0750
     82 H         -31.7710   12.1210   29.2210 H       1  UNL1        0.0750
     83 C         -31.2460   15.1030   29.5800 C.3     1  UNL1        0.1930
     84 H         -32.1270   14.0990   31.2770 H       1  UNL1        0.2800
     85 H         -30.6850   13.3220   30.6650 H       1  UNL1        0.2800
     86 H         -30.2690   15.2320   29.1130 H       1  UNL1        0.1290
     87 H         -31.2040   15.0890   27.7900 H       1  UNL1        0.0460
     88 O         -31.4740   16.3020   30.3240 O.3     1  UNL1       -0.3690
     89 H         -30.7980   16.3930   31.0000 H       1  UNL1        0.2120
     90 C         -31.3620   15.6100   22.6120 C.3     1  UNL1       -0.0350
     91 H         -32.3520   15.3640   22.2300 H       1  UNL1        0.0370
     92 H         -31.0670   16.6530   22.7320 H       1  UNL1        0.0370
     93 C         -30.3360   14.9720   21.6220 C.3     1  UNL1       -0.0590
     94 H         -30.4870   13.8930   21.6380 H       1  UNL1        0.0380
     95 C         -30.5520   15.4610   20.1540 C.3     1  UNL1       -0.0730
     96 H         -30.6000   14.6010   19.4880 H       1  UNL1        0.0280
     97 H         -31.4850   16.0210   20.0910 H       1  UNL1        0.0280
     98 H         -29.7220   16.1030   19.8590 H       1  UNL1        0.0280
     99 C         -28.8990   15.2370   22.0780 C.3     1  UNL1       -0.0730
    100 H         -28.2310   14.5070   21.6190 H       1  UNL1        0.0280
    101 H         -28.6000   16.2410   21.7760 H       1  UNL1        0.0280
    102 H         -28.8400   15.1520   23.1630 H       1  UNL1        0.0280
@<TRIPOS>BOND
     1    96    95    1
     2    98    95    1
     3    97    95    1
     4    95    93    1
     5   100    99    1
     6    93    94    1
     7    93    99    1
     8    93    90    1
     9   101    99    1
    10    99   102    1
    11    91    90    1
    12    40    39    1
    13    36    35    1
    14    90    92    1
    15    90     1    1
    16    34    33    1
    17     6     3    1
    18    41    39    1
    19    39    33    1
    20    39    42    1
    21    37    35    1
    22    35    33    1
    23    35    38    1
    24    66    63    1
    25    64    62    1
    26    33     7    1
    27     3     1    1
    28     3     4   am
    29     1     2    1
    30     1    43    1
    31    63    62   ar
    32    63    65   ar
    33    62    61   ar
    34    44    43    2
    35    12     9    1
    36    43    45   am
    37     7     4    1
    38     7     9    1
    39     7     8    1
    40    60    58    1
    41     4     5    2
    42    54    52    1
    43     9    10   am
    44    57    58    1
    45    57    55    1
    46    68    65    1
    47    65    67   ar
    48    61    58    1
    49    61    69   ar
    50    58    59    1
    51    14    13    1
    52    52    53    1
    53    52    55    1
    54    52    49    1
    55    45    46    1
    56    45    47    1
    57    55    56    2
    58    31    29    1
    59    10    13    1
    60    10    11    2
    61    48    47    1
    62    32    29    1
    63    67    69   ar
    64    67    70    1
    65    69    71    1
    66    13    29    1
    67    13    15    1
    68    29    30    1
    69    17    16    2
    70    47    49    1
    71    47    72    1
    72    51    49    1
    73    49    50    1
    74    79    76    1
    75    87    75    1
    76    16    15   am
    77    16    19    1
    78    15    18    1
    79    72    74    1
    80    72    75    1
    81    72    73    1
    82    75    76    1
    83    75    83    1
    84    76    78    1
    85    76    77    1
    86    86    83    1
    87    82    77    1
    88    19    20   ar
    89    19    24   ar
    90    22    20    1
    91    83    88    1
    92    83    80    1
    93    77    81    1
    94    77    80    1
    95    20    21   ar
    96    24    23   ar
    97    88    89    1
    98    80    85    1
    99    80    84    1
   100    21    23   ar
   101    21    25    1
   102    27    25    1
   103    25    26    1
   104    25    28    1
@<TRIPOS>MOLECULE
crystal_redock_e24_er3_1.pdbqt
 102 104 0 0 0
SMALL
GASTEIGER

@<TRIPOS>ATOM
      1 C         -30.7820   14.0010   24.0910 C.3     1  UNL1        0.0890
      2 H         -29.7270   13.7230   24.0840 H       1  UNL1        0.0870
      3 N         -31.5500   12.7970   24.3690 N.am    1  UNL1       -0.3460
      4 C         -31.0910   11.4620   23.8400 C.2     1  UNL1        0.2410
      5 O         -30.1010   11.3810   23.1910 O.2     1  UNL1       -0.2710
      6 H         -32.3910   12.8870   24.9210 H       1  UNL1        0.1630
      7 C         -31.8960   10.2250   24.1420 C.3     1  UNL1        0.0920
      8 H         -31.4580    9.7120   24.9990 H       1  UNL1        0.0880
      9 N         -33.2600   10.6090   24.5180 N.am    1  UNL1       -0.3460
     10 C         -33.6690   10.5550   25.9000 C.2     1  UNL1        0.2400
     11 O         -32.9140   10.2030   26.7220 O.2     1  UNL1       -0.2710
     12 H         -33.9230   10.9120   23.8200 H       1  UNL1        0.1630
     13 C         -35.1230   10.9610   26.2940 C.3     1  UNL1        0.0860
     14 H         -35.8050   10.9610   25.4440 H       1  UNL1        0.0860
     15 N         -35.6420    9.9930   27.2450 N.am    1  UNL1       -0.3430
     16 C         -37.0480    9.5890   27.1680 C.2     1  UNL1        0.2730
     17 O         -37.7530   10.0510   26.3400 O.2     1  UNL1       -0.2660
     18 H         -35.0330    9.6050   27.9510 H       1  UNL1        0.1630
     19 C         -37.6100    8.5650   28.1670 C.ar    1  UNL1        0.1540
     20 C         -37.4000    7.1500   28.1640 C.ar    1  UNL1       -0.0170
     21 C         -38.1250    6.6720   29.2790 C.ar    1  UNL1        0.0770
     22 H         -36.8110    6.5590   27.4620 H       1  UNL1        0.0910
     23 O         -38.6820    7.7010   29.8480 O.2     1  UNL1       -0.2180
     24 N         -38.3960    8.8170   29.2170 N.ar    1  UNL1       -0.1230
     25 C         -38.2330    5.2220   29.7300 C.3     1  UNL1       -0.0290
     26 H         -39.1090    4.7630   29.2710 H       1  UNL1        0.0360
     27 H         -37.3380    4.6790   29.4260 H       1  UNL1        0.0360
     28 H         -38.3300    5.1850   30.8150 H       1  UNL1        0.0360
     29 C         -35.1140   12.3370   26.9100 C.3     1  UNL1       -0.0490
     30 H         -35.6900   12.3250   27.8350 H       1  UNL1        0.0300
     31 H         -34.0870   12.6310   27.1260 H       1  UNL1        0.0300
     32 H         -35.5580   13.0500   26.2150 H       1  UNL1        0.0300
     33 C         -31.9450    9.3170   22.8790 C.3     1  UNL1       -0.0330
     34 H         -31.6160    9.9160   22.0300 H       1  UNL1        0.0420
     35 C         -30.9650    8.1090   23.0080 C.3     1  UNL1       -0.0710
     36 H         -30.2520    8.3040   23.8100 H       1  UNL1        0.0280
     37 H         -31.5300    7.2060   23.2360 H       1  UNL1        0.0280
     38 H         -30.4270    7.9760   22.0690 H       1  UNL1        0.0280
     39 C         -33.4040    8.8340   22.5930 C.3     1  UNL1       -0.0710
     40 H         -33.4380    7.7450   22.6250 H       1  UNL1        0.0280
     41 H         -34.0760    9.2410   23.3490 H       1  UNL1        0.0280
     42 H         -33.7150    9.1800   21.6080 H       1  UNL1        0.0280
     43 C         -31.1040   15.0580   25.1860 C.2     1  UNL1        0.2400
     44 O         -30.7490   16.1840   25.0430 O.2     1  UNL1       -0.2710
     45 N         -31.8620   14.6690   26.4080 N.am    1  UNL1       -0.3550
     46 H         -32.1730   13.7170   26.5380 H       1  UNL1        0.1620
     47 C         -32.1620   15.6860   27.4400 C.3     1  UNL1        0.0130
     48 H         -31.5530   16.5660   27.2300 H       1  UNL1        0.0720
     49 C         -31.8170   15.1320   28.8030 C.3     1  UNL1       -0.0380
     50 H         -30.7700   14.8350   28.7450 H       1  UNL1        0.0360
     51 H         -32.1300   15.8930   29.5180 H       1  UNL1        0.0360
     52 C         -32.6130   13.8550   29.1500 C.3     1  UNL1        0.0180
     53 H         -32.9300   13.9760   30.1850 H       1  UNL1        0.0480
     54 H         -33.3580   13.7480   28.3610 H       1  UNL1        0.0480
     55 C         -31.7610   12.5560   29.1120 C.2     1  UNL1        0.2590
     56 O         -30.7960   12.4870   28.4220 O.2     1  UNL1       -0.2650
     57 O         -32.1540   11.4420   29.9040 O.3     1  UNL1       -0.3170
     58 C         -32.9480   11.7880   31.0430 C.3     1  UNL1        0.0520
     59 H         -32.2560   11.8260   31.8840 H       1  UNL1        0.0820
     60 H         -33.5050   12.6790   30.7550 H       1  UNL1        0.0820
     61 C         -33.9580   10.6360   31.2900 C.ar    1  UNL1       -0.0340
     62 C         -34.8300   10.6940   32.3730 C.ar    1  UNL1       -0.0750
     63 C         -35.7370    9.6600   32.5950 C.ar    1  UNL1       -0.0820
     64 H         -34.8020   11.5500   33.0470 H       1  UNL1        0.0840
     65 C         -35.7690    8.5620   31.7320 C.ar    1  UNL1       -0.0830
     66 H         -36.4210    9.7090   33.4440 H       1  UNL1        0.0830
     67 C         -34.8950    8.5060   30.6550 C.ar    1  UNL1       -0.0820
     68 H         -36.4760    7.7490   31.8980 H       1  UNL1        0.0830
     69 C         -33.9880    9.5390   30.4270 C.ar    1  UNL1       -0.0750
     70 H         -34.9210    7.6470   29.9840 H       1  UNL1        0.0830
     71 H         -33.3060    9.4890   29.5780 H       1  UNL1        0.0840
     72 C         -33.6460   16.0450   27.3950 C.3     1  UNL1       -0.0390
     73 H         -34.0940   15.3410   26.6940 H       1  UNL1        0.0360
     74 H         -33.9720   16.0600   28.4350 H       1  UNL1        0.0360
     75 C         -33.8820   17.5150   26.8040 C.3     1  UNL1       -0.0010
     76 C         -32.4950   18.3920   26.9110 C.3     1  UNL1       -0.0350
     77 C         -32.7700   19.5730   27.5140 C.3     1  UNL1        0.0850
     78 H         -31.8010   17.9100   27.5990 H       1  UNL1        0.0360
     79 H         -32.1610   18.6860   25.9160 H       1  UNL1        0.0360
     80 N         -34.1460   19.4480   28.1220 N.4     1  UNL1       -0.0490
     81 H         -32.0360   19.6690   28.3140 H       1  UNL1        0.0750
     82 H         -32.8020   20.3090   26.7120 H       1  UNL1        0.0750
     83 C         -34.8100   18.1370   27.4540 C.3     1  UNL1        0.1930
     84 H         -34.0100   19.2730   29.1070 H       1  UNL1        0.2800
     85 H         -34.6660   20.2600   27.8200 H       1  UNL1        0.2800
     86 H         -35.5660   18.2340   26.6750 H       1  UNL1        0.1290
     87 H         -34.3830   17.4960   25.8360 H       1  UNL1        0.0460
     88 O         -35.4030   17.3170   28.4620 O.3     1  UNL1       -0.3690
     89 H         -35.0510   17.5610   29.3220 H       1  UNL1        0.2120
     90 C         -31.1800   14.5410   22.7260 C.3     1  UNL1       -0.0350
     91 H         -31.9130   13.8330   22.3390 H       1  UNL1        0.0370
     92 H         -31.4630   15.5790   22.8980 H       1  UNL1        0.0370
     93 C         -30.0070   14.5670   21.6960 C.3     1  UNL1       -0.0590
     94 H         -29.8880   13.5570   21.3040 H       1  UNL1        0.0380
     95 C         -30.3040   15.5150   20.4900 C.3     1  UNL1       -0.0730
     96 H         -30.1500   16.5500   20.7940 H       1  UNL1        0.0280
     97 H         -29.6320   15.2760   19.6660 H       1  UNL1        0.0280
     98 H         -31.3360   15.3800   20.1670 H       1  UNL1        0.0280
     99 C         -28.6900   14.9480   22.3770 C.3     1  UNL1       -0.0730
    100 H         -28.8810   15.2090   23.4180 H       1  UNL1        0.0280
    101 H         -28.0010   14.1040   22.3340 H       1  UNL1        0.0280
    102 H         -28.2490   15.8020   21.8630 H       1  UNL1        0.0280
@<TRIPOS>BOND
     1    97    95    1
     2    98    95    1
     3    95    96    1
     4    95    93    1
     5    94    93    1
     6    42    39    1
     7    93    99    1
     8    93    90    1
     9   102    99    1
    10    34    33    1
    11    38    35    1
    12   101    99    1
    13    91    90    1
    14    99   100    1
    15    39    40    1
    16    39    33    1
    17    39    41    1
    18    90    92    1
    19    90     1    1
    20    33    35    1
    21    33     7    1
    22    35    37    1
    23    35    36    1
    24     5     4    2
    25    12     9    1
    26     4     7    1
    27     4     3   am
    28     2     1    1
    29     1     3    1
    30     1    43    1
    31     7     9    1
    32     7     8    1
    33     3     6    1
    34     9    10   am
    35    44    43    2
    36    43    45   am
    37    14    13    1
    38    87    75    1
    39    10    13    1
    40    10    11    2
    41    79    76    1
    42    32    29    1
    43    13    29    1
    44    13    15    1
    45    17    16    2
    46    45    46    1
    47    45    47    1
    48    86    83    1
    49    73    72    1
    50    82    77    1
    51    75    76    1
    52    75    72    1
    53    75    83    1
    54    29    31    1
    55    29    30    1
    56    76    77    1
    57    76    78    1
    58    16    15   am
    59    16    19    1
    60    48    47    1
    61    15    18    1
    62    72    47    1
    63    72    74    1
    64    47    49    1
    65    83    80    1
    66    83    88    1
    67    22    20    1
    68    77    80    1
    69    77    81    1
    70    85    80    1
    71    80    84    1
    72    20    19   ar
    73    20    21   ar
    74    19    24   ar
    75    54    52    1
    76    56    55    2
    77    88    89    1
    78    50    49    1
    79    49    52    1
    80    49    51    1
    81    55    52    1
    82    55    57    1
    83    52    53    1
    84    24    23   ar
    85    26    25    1
    86    21    25    1
    87    21    23   ar
    88    27    25    1
    89    71    69    1
    90    25    28    1
    91    57    58    1
    92    70    67    1
    93    69    67   ar
    94    69    61   ar
    95    67    65   ar
    96    60    58    1
    97    58    61    1
    98    58    59    1
    99    61    62   ar
   100    65    68    1
   101    65    63   ar
   102    62    63   ar
   103    62    64    1
   104    63    66    1
@<TRIPOS>MOLECULE
crystal_redock_e24_er3_1.pdbqt
 102 104 0 0 0
SMALL
GASTEIGER

@<TRIPOS>ATOM
      1 C         -37.1590   16.1610   26.6060 C.3     1  UNL1        0.0890
      2 H         -37.6140   16.6120   27.4880 H       1  UNL1        0.0870
      3 N         -35.7260   16.4060   26.6800 N.am    1  UNL1       -0.3460
      4 C         -35.1300   17.0880   27.8850 C.2     1  UNL1        0.2410
      5 O         -35.8250   17.4340   28.7830 O.2     1  UNL1       -0.2710
      6 H         -35.1520   16.1060   25.9040 H       1  UNL1        0.1630
      7 C         -33.6440   17.3270   27.9470 C.3     1  UNL1        0.0920
      8 H         -33.4230   17.9950   28.7800 H       1  UNL1        0.0880
      9 N         -32.9550   16.0610   28.2130 N.am    1  UNL1       -0.3460
     10 C         -32.0220   15.9650   29.3080 C.2     1  UNL1        0.2400
     11 O         -31.8120   16.8970   29.9840 O.2     1  UNL1       -0.2710
     12 H         -33.1250   15.2490   27.6370 H       1  UNL1        0.1630
     13 C         -31.2890   14.6150   29.5830 C.3     1  UNL1        0.0860
     14 H         -30.6770   14.6440   30.4840 H       1  UNL1        0.0860
     15 N         -32.2810   13.5730   29.7880 N.am    1  UNL1       -0.3430
     16 C         -31.9240   12.3770   30.5540 C.2     1  UNL1        0.2730
     17 O         -30.8350   12.2620   30.9990 O.2     1  UNL1       -0.2660
     18 H         -33.2090   13.6790   29.4020 H       1  UNL1        0.1630
     19 C         -32.9640   11.2680   30.7800 C.ar    1  UNL1        0.1540
     20 C         -33.3280   10.2270   29.8690 C.ar    1  UNL1       -0.0170
     21 C         -34.3160    9.4790   30.5480 C.ar    1  UNL1        0.0770
     22 H         -32.9360   10.0410   28.8690 H       1  UNL1        0.0910
     23 O         -34.4890   10.0340   31.7120 O.2     1  UNL1       -0.2180
     24 N         -33.7120   11.0800   31.8700 N.ar    1  UNL1       -0.1230
     25 C         -35.0420    8.2500   30.0160 C.3     1  UNL1       -0.0290
     26 H         -34.3440    7.6310   29.4540 H       1  UNL1        0.0360
     27 H         -35.4440    7.6770   30.8510 H       1  UNL1        0.0360
     28 H         -35.8570    8.5640   29.3640 H       1  UNL1        0.0360
     29 C         -30.4100   14.2680   28.4080 C.3     1  UNL1       -0.0490
     30 H         -29.3700   14.4720   28.6600 H       1  UNL1        0.0300
     31 H         -30.5260   13.2110   28.1690 H       1  UNL1        0.0300
     32 H         -30.7000   14.8700   27.5470 H       1  UNL1        0.0300
     33 C         -33.1560   17.9060   26.5870 C.3     1  UNL1       -0.0330
     34 H         -34.0320   18.0370   25.9520 H       1  UNL1        0.0420
     35 C         -32.4940   19.3070   26.7700 C.3     1  UNL1       -0.0710
     36 H         -32.4330   19.5440   27.8320 H       1  UNL1        0.0280
     37 H         -31.4930   19.2950   26.3410 H       1  UNL1        0.0280
     38 H         -33.0970   20.0620   26.2640 H       1  UNL1        0.0280
     39 C         -32.1860   16.9110   25.8720 C.3     1  UNL1       -0.0710
     40 H         -32.6130   16.6100   24.9160 H       1  UNL1        0.0280
     41 H         -31.2240   17.3980   25.7040 H       1  UNL1        0.0280
     42 H         -32.0410   16.0310   26.4990 H       1  UNL1        0.0280
     43 C         -37.3970   14.6250   26.5430 C.2     1  UNL1        0.2400
     44 O         -38.4850   14.1880   26.7340 O.2     1  UNL1       -0.2710
     45 N         -36.2690   13.7000   26.2350 N.am    1  UNL1       -0.3550
     46 H         -35.3410   14.0610   26.0670 H       1  UNL1        0.1620
     47 C         -36.5120   12.2430   26.1770 C.3     1  UNL1        0.0130
     48 H         -37.4770   12.0450   26.6430 H       1  UNL1        0.0720
     49 C         -35.4170   11.5230   26.9320 C.3     1  UNL1       -0.0380
     50 H         -35.1460   12.1820   27.7580 H       1  UNL1        0.0360
     51 H         -35.8060   10.5250   27.1350 H       1  UNL1        0.0360
     52 C         -34.1370   11.3290   26.0910 C.3     1  UNL1        0.0180
     53 H         -33.7160   10.3760   26.4080 H       1  UNL1        0.0480
     54 H         -34.4400   11.4730   25.0540 H       1  UNL1        0.0480
     55 C         -33.0390   12.3940   26.3670 C.2     1  UNL1        0.2590
     56 O         -33.3170   13.4270   26.8830 O.2     1  UNL1       -0.2650
     57 O         -31.6950   12.1250   25.9830 O.3     1  UNL1       -0.3170
     58 C         -31.5620   11.5960   24.6610 C.3     1  UNL1        0.0520
     59 H         -30.9420   10.7050   24.7610 H       1  UNL1        0.0820
     60 H         -32.5770   11.5120   24.2730 H       1  UNL1        0.0820
     61 C         -30.7940   12.6360   23.8040 C.ar    1  UNL1       -0.0340
     62 C         -30.8290   13.9840   24.1470 C.ar    1  UNL1       -0.0750
     63 C         -30.1390   14.9190   23.3770 C.ar    1  UNL1       -0.0820
     64 H         -31.3980   14.3080   25.0190 H       1  UNL1        0.0840
     65 C         -29.4130   14.5020   22.2580 C.ar    1  UNL1       -0.0830
     66 H         -30.1670   15.9740   23.6500 H       1  UNL1        0.0830
     67 C         -29.3830   13.1560   21.9170 C.ar    1  UNL1       -0.0820
     68 H         -28.8700   15.2260   21.6510 H       1  UNL1        0.0830
     69 C         -30.0700   12.2180   22.6850 C.ar    1  UNL1       -0.0750
     70 H         -28.8180   12.8350   21.0420 H       1  UNL1        0.0830
     71 H         -30.0410   11.1630   22.4120 H       1  UNL1        0.0840
     72 C         -36.5190   11.7780   24.7230 C.3     1  UNL1       -0.0390
     73 H         -35.8520   12.4620   24.1960 H       1  UNL1        0.0360
     74 H         -36.2890   10.7130   24.7570 H       1  UNL1        0.0360
     75 C         -37.9690   11.9270   24.0600 C.3     1  UNL1       -0.0010
     76 C         -38.4030   10.5150   23.3370 C.3     1  UNL1       -0.0350
     77 C         -38.7920   10.7770   22.0660 C.3     1  UNL1        0.0850
     78 H         -37.5300    9.8760   23.2110 H       1  UNL1        0.0360
     79 H         -39.3060   10.1190   23.8030 H       1  UNL1        0.0360
     80 N         -38.3530   12.1860   21.7520 N.4     1  UNL1       -0.0490
     81 H         -38.2300   10.0820   21.4420 H       1  UNL1        0.0750
     82 H         -39.8800   10.7380   22.0810 H       1  UNL1        0.0750
     83 C         -37.9820   12.8630   23.1700 C.3     1  UNL1        0.1930
     84 H         -37.5090   12.1080   21.2020 H       1  UNL1        0.2800
     85 H         -39.1610   12.6590   21.3710 H       1  UNL1        0.2800
     86 H         -38.6630   13.5730   23.6390 H       1  UNL1        0.1290
     87 H         -38.6910   12.3780   24.7420 H       1  UNL1        0.0460
     88 O         -36.7270   13.5390   23.0800 O.3     1  UNL1       -0.3690
     89 H         -36.3670   13.6650   23.9610 H       1  UNL1        0.2120
     90 C         -37.7100   16.8160   25.3500 C.3     1  UNL1       -0.0350
     91 H         -37.3270   16.2200   24.5220 H       1  UNL1        0.0370
     92 H         -38.7850   16.8960   25.5140 H       1  UNL1        0.0370
     93 C         -37.1900   18.2710   25.1220 C.3     1  UNL1       -0.0590
     94 H         -36.1100   18.2630   25.2700 H       1  UNL1        0.0380
     95 C         -37.4680   18.7760   23.6700 C.3     1  UNL1       -0.0730
     96 H         -36.5320   19.0900   23.2090 H       1  UNL1        0.0280
     97 H         -37.9080   17.9700   23.0830 H       1  UNL1        0.0280
     98 H         -38.1570   19.6190   23.7040 H       1  UNL1        0.0280
     99 C         -37.7830   19.2320   26.1560 C.3     1  UNL1       -0.0730
    100 H         -38.0320   18.6820   27.0630 H       1  UNL1        0.0280
    101 H         -37.0550   20.0090   26.3910 H       1  UNL1        0.0280
    102 H         -38.6840   19.6910   25.7500 H       1  UNL1        0.0280
@<TRIPOS>BOND
     1    70    67    1
     2    84    80    1
     3    85    80    1
     4    81    77    1
     5    68    65    1
     6    80    77    1
     7    80    83    1
     8    67    65   ar
     9    67    69   ar
    10    77    82    1
    11    77    76    1
    12    65    63   ar
    13    71    69    1
    14    69    61   ar
    15    88    83    1
    16    88    89    1
    17    97    95    1
    18    83    86    1
    19    83    75    1
    20    96    95    1
    21    78    76    1
    22    76    79    1
    23    76    75    1
    24    63    66    1
    25    63    62   ar
    26    95    98    1
    27    95    93    1
    28    61    62   ar
    29    61    58    1
    30    75    72    1
    31    75    87    1
    32    62    64    1
    33    73    72    1
    34    60    58    1
    35    91    90    1
    36    58    59    1
    37    58    57    1
    38    72    74    1
    39    72    47    1
    40    40    39    1
    41    54    52    1
    42    93    94    1
    43    93    90    1
    44    93    99    1
    45    90    92    1
    46    90     1    1
    47    41    39    1
    48   102    99    1
    49    39    42    1
    50    39    33    1
    51     6     3    1
    52    34    33    1
    53    57    55    1
    54    46    45    1
    55    52    55    1
    56    52    53    1
    57    52    49    1
    58    99   101    1
    59    99   100    1
    60    47    45    1
    61    47    48    1
    62    47    49    1
    63    45    43   am
    64    38    35    1
    65    37    35    1
    66    55    56    2
    67    43     1    1
    68    43    44    2
    69    33    35    1
    70    33     7    1
    71     1     3    1
    72     1     2    1
    73     3     4   am
    74    35    36    1
    75    49    51    1
    76    49    50    1
    77    32    29    1
    78    12     9    1
    79     4     7    1
    80     4     5    2
    81     7     9    1
    82     7     8    1
    83    31    29    1
    84     9    10   am
    85    29    30    1
    86    29    13    1
    87    22    20    1
    88    10    13    1
    89    10    11    2
    90    28    25    1
    91    18    15    1
    92    26    25    1
    93    13    15    1
    94    13    14    1
    95    15    16   am
    96    20    21   ar
    97    20    19   ar
    98    25    21    1
    99    25    27    1
   100    21    23   ar
   101    16    19    1
   102    16    17    2
   103    19    24   ar
   104    23    24   ar
@<TRIPOS>MOLECULE
crystal_redock_e24_er3_1.pdbqt
 102 104 0 0 0
SMALL
GASTEIGER

@<TRIPOS>ATOM
      1 C         -32.0650    9.4410   24.2980 C.3     1  UNL1        0.0890
      2 H         -31.5760    8.5850   24.7630 H       1  UNL1        0.0870
      3 N         -33.4300    9.4930   24.8010 N.am    1  UNL1       -0.3460
      4 C         -34.0260    8.3040   25.5120 C.2     1  UNL1        0.2410
      5 O         -33.3880    7.3140   25.6640 O.2     1  UNL1       -0.2710
      6 H         -33.9560   10.3430   24.6590 H       1  UNL1        0.1630
      7 C         -35.4370    8.3770   26.0310 C.3     1  UNL1        0.0920
      8 H         -35.7560    7.3830   26.3440 H       1  UNL1        0.0880
      9 N         -35.4780    9.2390   27.2160 N.am    1  UNL1       -0.3460
     10 C         -35.8550    8.6880   28.4950 C.2     1  UNL1        0.2400
     11 O         -36.1300    7.5540   28.5880 O.2     1  UNL1       -0.2710
     12 H         -35.2460   10.2200   27.1510 H       1  UNL1        0.1630
     13 C         -35.9000    9.6110   29.7520 C.3     1  UNL1        0.0860
     14 H         -35.7190    9.0690   30.6800 H       1  UNL1        0.0860
     15 N         -34.8480   10.6080   29.6420 N.am    1  UNL1       -0.3430
     16 C         -33.7050   10.5550   30.5560 C.2     1  UNL1        0.2730
     17 O         -33.6420    9.7080   31.3780 O.2     1  UNL1       -0.2660
     18 H         -34.9110   11.3310   28.9390 H       1  UNL1        0.1630
     19 C         -32.5860   11.6020   30.4500 C.ar    1  UNL1        0.1540
     20 C         -32.6800   12.9150   29.8890 C.ar    1  UNL1       -0.0170
     21 C         -31.3870   13.4670   30.0350 C.ar    1  UNL1        0.0770
     22 H         -33.5520   13.3950   29.4440 H       1  UNL1        0.0910
     23 O         -30.6460   12.5680   30.6150 O.2     1  UNL1       -0.2180
     24 N         -31.3230   11.4720   30.8670 N.ar    1  UNL1       -0.1230
     25 C         -30.9450   14.8560   29.5960 C.3     1  UNL1       -0.0290
     26 H         -31.4900   15.6080   30.1660 H       1  UNL1        0.0360
     27 H         -29.8760   14.9700   29.7750 H       1  UNL1        0.0360
     28 H         -31.1510   14.9850   28.5340 H       1  UNL1        0.0360
     29 C         -37.2450   10.2860   29.8360 C.3     1  UNL1       -0.0490
     30 H         -37.5300   10.6520   28.8490 H       1  UNL1        0.0300
     31 H         -37.9890    9.5710   30.1870 H       1  UNL1        0.0300
     32 H         -37.1890   11.1230   30.5320 H       1  UNL1        0.0300
     33 C         -36.3650    8.9690   24.9300 C.3     1  UNL1       -0.0330
     34 H         -35.9000    9.8860   24.5670 H       1  UNL1        0.0420
     35 C         -36.4980    7.9980   23.7160 C.3     1  UNL1       -0.0710
     36 H         -37.4720    8.1350   23.2460 H       1  UNL1        0.0280
     37 H         -35.7120    8.2120   22.9920 H       1  UNL1        0.0280
     38 H         -36.4040    6.9690   24.0620 H       1  UNL1        0.0280
     39 C         -37.7650    9.3380   25.5170 C.3     1  UNL1       -0.0710
     40 H         -38.3490    8.4280   25.6620 H       1  UNL1        0.0280
     41 H         -37.6370    9.8440   26.4740 H       1  UNL1        0.0280
     42 H         -38.2870    9.9980   24.8250 H       1  UNL1        0.0280
     43 C         -31.3580   10.7820   24.6450 C.2     1  UNL1        0.2400
     44 O         -30.8900   10.9410   25.7250 O.2     1  UNL1       -0.2710
     45 N         -31.2560   11.8660   23.6260 N.am    1  UNL1       -0.3550
     46 H         -31.6460   11.7400   22.7030 H       1  UNL1        0.1620
     47 C         -30.5790   13.1340   23.9710 C.3     1  UNL1        0.0130
     48 H         -29.9120   12.9410   24.8100 H       1  UNL1        0.0720
     49 C         -31.6160   14.1640   24.3610 C.3     1  UNL1       -0.0380
     50 H         -31.2570   15.1110   23.9570 H       1  UNL1        0.0360
     51 H         -32.5720   13.7580   24.0310 H       1  UNL1        0.0360
     52 C         -31.7260   14.3540   25.8890 C.3     1  UNL1        0.0180
     53 H         -31.0410   13.6280   26.3270 H       1  UNL1        0.0480
     54 H         -31.5760   15.4200   26.0660 H       1  UNL1        0.0480
     55 C         -33.1300   14.0180   26.4630 C.2     1  UNL1        0.2590
     56 O         -33.6310   12.9610   26.2520 O.2     1  UNL1       -0.2650
     57 O         -33.8200   14.9950   27.2340 O.3     1  UNL1       -0.3170
     58 C         -34.5010   15.9800   26.4520 C.3     1  UNL1        0.0520
     59 H         -34.3320   15.6990   25.4130 H       1  UNL1        0.0820
     60 H         -35.5150   16.0210   26.8480 H       1  UNL1        0.0820
     61 C         -33.8180   17.3500   26.7080 C.ar    1  UNL1       -0.0340
     62 C         -33.1890   17.5990   27.9240 C.ar    1  UNL1       -0.0750
     63 C         -32.5760   18.8300   28.1530 C.ar    1  UNL1       -0.0820
     64 H         -33.1770   16.8300   28.6970 H       1  UNL1        0.0840
     65 C         -32.5960   19.8150   27.1620 C.ar    1  UNL1       -0.0830
     66 H         -32.0830   19.0210   29.1070 H       1  UNL1        0.0830
     67 C         -33.2270   19.5630   25.9520 C.ar    1  UNL1       -0.0820
     68 H         -32.1180   20.7800   27.3340 H       1  UNL1        0.0830
     69 C         -33.8390   18.3330   25.7170 C.ar    1  UNL1       -0.0750
     70 H         -33.2420   20.3340   25.1820 H       1  UNL1        0.0830
     71 H         -34.3320   18.1430   24.7640 H       1  UNL1        0.0840
     72 C         -29.7860   13.6400   22.7680 C.3     1  UNL1       -0.0390
     73 H         -28.7930   13.8740   23.1530 H       1  UNL1        0.0360
     74 H         -29.9060   12.8770   21.9990 H       1  UNL1        0.0360
     75 C         -30.3980   15.0000   22.1830 C.3     1  UNL1       -0.0010
     76 C         -31.0310   14.7330   20.6890 C.3     1  UNL1       -0.0350
     77 C         -30.5280   15.6540   19.8320 C.3     1  UNL1        0.0850
     78 H         -30.6630   13.7870   20.2920 H       1  UNL1        0.0360
     79 H         -32.1000   14.9450   20.6920 H       1  UNL1        0.0360
     80 N         -29.3650   16.3170   20.5280 N.4     1  UNL1       -0.0490
     81 H         -30.1550   15.0850   18.9800 H       1  UNL1        0.0750
     82 H         -31.3230   16.3860   19.6920 H       1  UNL1        0.0750
     83 C         -29.4940   15.9170   22.0870 C.3     1  UNL1        0.1930
     84 H         -28.5280   15.8930   20.1550 H       1  UNL1        0.2800
     85 H         -29.5090   17.3130   20.4390 H       1  UNL1        0.2800
     86 H         -29.8640   16.6380   22.8150 H       1  UNL1        0.1290
     87 H         -31.0340   15.5110   22.9070 H       1  UNL1        0.0460
     88 O         -28.2290   15.4810   22.5900 O.3     1  UNL1       -0.3690
     89 H         -27.6110   16.2160   22.5820 H       1  UNL1        0.2120
     90 C         -32.1000    9.2560   22.7890 C.3     1  UNL1       -0.0350
     91 H         -33.0670    8.8020   22.5760 H       1  UNL1        0.0370
     92 H         -31.8530   10.2330   22.3730 H       1  UNL1        0.0370
     93 C         -31.0190    8.2630   22.2540 C.3     1  UNL1       -0.0590
     94 H         -31.3780    7.8630   21.3060 H       1  UNL1        0.0380
     95 C         -29.6510    8.9700   21.9870 C.3     1  UNL1       -0.0730
     96 H         -29.5200    9.1130   20.9150 H       1  UNL1        0.0280
     97 H         -29.6380    9.9380   22.4870 H       1  UNL1        0.0280
     98 H         -28.8410    8.3510   22.3720 H       1  UNL1        0.0280
     99 C         -30.8430    7.0800   23.2100 C.3     1  UNL1       -0.0730
    100 H         -31.7990    6.5720   23.3390 H       1  UNL1        0.0280
    101 H         -30.1140    6.3830   22.7960 H       1  UNL1        0.0280
    102 H         -30.4910    7.4420   24.1750 H       1  UNL1        0.0280
@<TRIPOS>BOND
     1    81    77    1
     2    82    77    1
     3    77    80    1
     4    77    76    1
     5    84    80    1
     6    78    76    1
     7    85    80    1
     8    80    83    1
     9    76    79    1
    10    76    75    1
    11    96    95    1
    12    94    93    1
    13    95    93    1
    14    95    98    1
    15    95    97    1
    16    74    72    1
    17    83    75    1
    18    83    88    1
    19    83    86    1
    20    75    72    1
    21    75    87    1
    22    93    90    1
    23    93    99    1
    24    92    90    1
    25    91    90    1
    26    89    88    1
    27    46    45    1
    28    72    73    1
    29    72    47    1
    30    90     1    1
    31   101    99    1
    32    37    35    1
    33    99   100    1
    34    99   102    1
    35    36    35    1
    36    45    47    1
    37    45    43   am
    38    35    38    1
    39    35    33    1
    40    50    49    1
    41    47    49    1
    42    47    48    1
    43    51    49    1
    44     1    43    1
    45     1     2    1
    46     1     3    1
    47    49    52    1
    48    34    33    1
    49    43    44    2
    50     6     3    1
    51    71    69    1
    52     3     4   am
    53    42    39    1
    54    33    39    1
    55    33     7    1
    56    70    67    1
    57    59    58    1
    58     4     5    2
    59     4     7    1
    60    39    40    1
    61    39    41    1
    62    69    67   ar
    63    69    61   ar
    64    52    54    1
    65    52    53    1
    66    52    55    1
    67    67    65   ar
    68     7     8    1
    69     7     9    1
    70    56    55    2
    71    58    61    1
    72    58    60    1
    73    58    57    1
    74    55    57    1
    75    61    62   ar
    76    12     9    1
    77    65    68    1
    78    65    63   ar
    79     9    10   am
    80    62    63   ar
    81    62    64    1
    82    63    66    1
    83    10    11    2
    84    10    13    1
    85    28    25    1
    86    30    29    1
    87    18    15    1
    88    22    20    1
    89    25    27    1
    90    25    21    1
    91    25    26    1
    92    15    13    1
    93    15    16   am
    94    13    29    1
    95    13    14    1
    96    29    31    1
    97    29    32    1
    98    20    21   ar
    99    20    19   ar
   100    21    23   ar
   101    19    16    1
   102    19    24   ar
   103    16    17    2
   104    23    24   ar
@<TRIPOS>MOLECULE
crystal_redock_e24_er3_1.pdbqt
 102 104 0 0 0
SMALL
GASTEIGER

@<TRIPOS>ATOM
      1 C         -32.4160    9.9160   24.6520 C.3     1  UNL1        0.0890
      2 H         -32.1980    9.0980   25.3400 H       1  UNL1        0.0870
      3 N         -33.7970   10.3180   24.8740 N.am    1  UNL1       -0.3460
      4 C         -34.4500   10.0950   26.2150 C.2     1  UNL1        0.2410
      5 O         -33.8440    9.5880   27.1000 O.2     1  UNL1       -0.2710
      6 H         -34.2970   10.7460   24.1070 H       1  UNL1        0.1630
      7 C         -35.8780   10.5230   26.4280 C.3     1  UNL1        0.0920
      8 H         -36.0310   10.7500   27.4830 H       1  UNL1        0.0880
      9 N         -36.1370   11.7550   25.6780 N.am    1  UNL1       -0.3460
     10 C         -36.9700   12.7850   26.2490 C.2     1  UNL1        0.2400
     11 O         -37.4410   12.6370   27.3100 O.2     1  UNL1       -0.2710
     12 H         -35.7390   11.8960   24.7600 H       1  UNL1        0.1630
     13 C         -37.2450   14.0930   25.4440 C.3     1  UNL1        0.0860
     14 H         -38.2180   14.5300   25.6690 H       1  UNL1        0.0860
     15 N         -36.2490   15.0870   25.8070 N.am    1  UNL1       -0.3430
     16 C         -36.5800   16.1120   26.7990 C.2     1  UNL1        0.2730
     17 O         -37.6520   16.1300   27.2980 O.2     1  UNL1       -0.2660
     18 H         -35.3360   15.0670   25.3740 H       1  UNL1        0.1630
     19 C         -35.5360   17.1690   27.1940 C.ar    1  UNL1        0.1540
     20 C         -34.4950   17.7050   26.3710 C.ar    1  UNL1       -0.0170
     21 C         -33.8200   18.6310   27.1960 C.ar    1  UNL1        0.0770
     22 H         -34.2650   17.4590   25.3340 H       1  UNL1        0.0910
     23 O         -34.4130   18.6220   28.3540 O.2     1  UNL1       -0.2180
     24 N         -35.4170   17.7760   28.3770 N.ar    1  UNL1       -0.1230
     25 C         -32.6210   19.4840   26.8020 C.3     1  UNL1       -0.0290
     26 H         -32.6330   19.6520   25.7260 H       1  UNL1        0.0360
     27 H         -32.6710   20.4420   27.3190 H       1  UNL1        0.0360
     28 H         -31.7020   18.9690   27.0790 H       1  UNL1        0.0360
     29 C         -37.1700   13.8030   23.9670 C.3     1  UNL1       -0.0490
     30 H         -38.1770   13.7870   23.5480 H       1  UNL1        0.0300
     31 H         -36.5840   14.5770   23.4730 H       1  UNL1        0.0300
     32 H         -36.6970   12.8330   23.8100 H       1  UNL1        0.0300
     33 C         -36.8350    9.4020   25.9260 C.3     1  UNL1       -0.0330
     34 H         -36.2620    8.4760   25.8810 H       1  UNL1        0.0420
     35 C         -38.0170    9.1750   26.9200 C.3     1  UNL1       -0.0710
     36 H         -38.8140    8.6270   26.4180 H       1  UNL1        0.0280
     37 H         -37.6650    8.6020   27.7770 H       1  UNL1        0.0280
     38 H         -38.3970   10.1390   27.2580 H       1  UNL1        0.0280
     39 C         -37.3580    9.7160   24.4870 C.3     1  UNL1       -0.0710
     40 H         -38.4000    9.4080   24.4040 H       1  UNL1        0.0280
     41 H         -37.2800   10.7880   24.2980 H       1  UNL1        0.0280
     42 H         -36.7580    9.1740   23.7560 H       1  UNL1        0.0280
     43 C         -31.4970   11.1470   24.8940 C.2     1  UNL1        0.2400
     44 O         -30.8010   11.1860   25.8560 O.2     1  UNL1       -0.2710
     45 N         -31.4790   12.2760   23.9200 N.am    1  UNL1       -0.3550
     46 H         -32.0620   12.2530   23.0960 H       1  UNL1        0.1620
     47 C         -30.5980   13.4390   24.1630 C.3     1  UNL1        0.0130
     48 H         -29.9030   13.1730   24.9590 H       1  UNL1        0.0720
     49 C         -31.4390   14.6220   24.5860 C.3     1  UNL1       -0.0380
     50 H         -30.8290   15.5040   24.3870 H       1  UNL1        0.0360
     51 H         -32.3980   14.4970   24.0830 H       1  UNL1        0.0360
     52 C         -31.7390   14.6330   26.1010 C.3     1  UNL1        0.0180
     53 H         -31.0330   13.9330   26.5470 H       1  UNL1        0.0480
     54 H         -31.7290   15.6820   26.3970 H       1  UNL1        0.0480
     55 C         -33.1540   14.1000   26.4630 C.2     1  UNL1        0.2590
     56 O         -33.7510   13.4100   25.7010 O.2     1  UNL1       -0.2650
     57 O         -33.7350   14.4570   27.7110 O.3     1  UNL1       -0.3170
     58 C         -32.7850   14.8690   28.6980 C.3     1  UNL1        0.0520
     59 H         -31.9340   15.2620   28.1430 H       1  UNL1        0.0820
     60 H         -33.3330   15.5150   29.3840 H       1  UNL1        0.0820
     61 C         -32.3250   13.6070   29.4750 C.ar    1  UNL1       -0.0340
     62 C         -31.1070   13.6090   30.1480 C.ar    1  UNL1       -0.0750
     63 C         -30.6930   12.4750   30.8460 C.ar    1  UNL1       -0.0820
     64 H         -30.4770   14.4980   30.1290 H       1  UNL1        0.0840
     65 C         -31.5010   11.3350   30.8670 C.ar    1  UNL1       -0.0830
     66 H         -29.7390   12.4800   31.3740 H       1  UNL1        0.0830
     67 C         -32.7130   11.3370   30.1920 C.ar    1  UNL1       -0.0820
     68 H         -31.1850   10.4450   31.4110 H       1  UNL1        0.0830
     69 C         -33.1320   12.4680   29.4950 C.ar    1  UNL1       -0.0750
     70 H         -33.3400   10.4450   30.2080 H       1  UNL1        0.0830
     71 H         -34.0870   12.4620   28.9670 H       1  UNL1        0.0840
     72 C         -29.8360   13.7860   22.8860 C.3     1  UNL1       -0.0390
     73 H         -28.8120   13.9840   23.2030 H       1  UNL1        0.0360
     74 H         -30.0440   12.9700   22.1930 H       1  UNL1        0.0360
     75 C         -30.3900   15.1300   22.2120 C.3     1  UNL1       -0.0010
     76 C         -31.0820   14.7850   20.7610 C.3     1  UNL1       -0.0350
     77 C         -30.5560   15.6050   19.8200 C.3     1  UNL1        0.0850
     78 H         -30.7810   13.7910   20.4300 H       1  UNL1        0.0360
     79 H         -32.1380   15.0580   20.7760 H       1  UNL1        0.0360
     80 N         -29.3370   16.2520   20.4310 N.4     1  UNL1       -0.0490
     81 H         -30.2420   14.9510   19.0060 H       1  UNL1        0.0750
     82 H         -31.3130   16.3690   19.6440 H       1  UNL1        0.0750
     83 C         -29.4390   15.9820   22.0190 C.3     1  UNL1        0.1930
     84 H         -28.5370   15.7520   20.0700 H       1  UNL1        0.2800
     85 H         -29.4280   17.2450   20.2660 H       1  UNL1        0.2800
     86 H         -29.7460   16.7780   22.6970 H       1  UNL1        0.1290
     87 H         -30.9730   15.7320   22.9090 H       1  UNL1        0.0460
     88 O         -28.1860   15.5140   22.5210 O.3     1  UNL1       -0.3690
     89 H         -27.4770   15.8260   21.9530 H       1  UNL1        0.2120
     90 C         -32.2630    9.4370   23.2180 C.3     1  UNL1       -0.0350
     91 H         -33.1100    8.7750   23.0420 H       1  UNL1        0.0370
     92 H         -32.1460   10.3420   22.6220 H       1  UNL1        0.0370
     93 C         -30.9790    8.5810   22.9770 C.3     1  UNL1       -0.0590
     94 H         -30.5000    8.4240   23.9430 H       1  UNL1        0.0380
     95 C         -31.3100    7.1780   22.3750 C.3     1  UNL1       -0.0730
     96 H         -31.3240    6.4350   23.1720 H       1  UNL1        0.0280
     97 H         -32.2860    7.2100   21.8920 H       1  UNL1        0.0280
     98 H         -30.5510    6.9090   21.6410 H       1  UNL1        0.0280
     99 C         -29.9800    9.3310   22.0910 C.3     1  UNL1       -0.0730
    100 H         -30.2630   10.3830   22.0340 H       1  UNL1        0.0280
    101 H         -28.9810    9.2470   22.5190 H       1  UNL1        0.0280
    102 H         -29.9840    8.8990   21.0910 H       1  UNL1        0.0280
@<TRIPOS>BOND
     1    81    77    1
     2    82    77    1
     3    77    80    1
     4    77    76    1
     5    84    80    1
     6    85    80    1
     7    78    76    1
     8    80    83    1
     9    76    79    1
    10    76    75    1
    11   102    99    1
    12    98    95    1
    13    97    95    1
    14    89    88    1
    15    83    75    1
    16    83    88    1
    17    83    86    1
    18   100    99    1
    19    99   101    1
    20    99    93    1
    21    74    72    1
    22    75    72    1
    23    75    87    1
    24    95    93    1
    25    95    96    1
    26    92    90    1
    27    72    73    1
    28    72    47    1
    29    93    90    1
    30    93    94    1
    31    91    90    1
    32    46    45    1
    33    90     1    1
    34    31    29    1
    35    30    29    1
    36    42    39    1
    37    32    29    1
    38    45    47    1
    39    45    43   am
    40    29    13    1
    41    51    49    1
    42     6     3    1
    43    47    49    1
    44    47    48    1
    45    41    39    1
    46    50    49    1
    47    40    39    1
    48    39    33    1
    49    49    52    1
    50     1     3    1
    51     1    43    1
    52     1     2    1
    53    12     9    1
    54     3     4   am
    55    43    44    2
    56    22    20    1
    57    18    15    1
    58    13    14    1
    59    13    15    1
    60    13    10    1
    61     9    10   am
    62     9     7    1
    63    56    55    2
    64    26    25    1
    65    15    16   am
    66    34    33    1
    67    33     7    1
    68    33    35    1
    69    52    54    1
    70    52    55    1
    71    52    53    1
    72     4     7    1
    73     4     5    2
    74    10    11    2
    75    20    19   ar
    76    20    21   ar
    77    36    35    1
    78     7     8    1
    79    55    57    1
    80    16    19    1
    81    16    17    2
    82    25    28    1
    83    25    21    1
    84    25    27    1
    85    35    38    1
    86    35    37    1
    87    19    24   ar
    88    21    23   ar
    89    57    58    1
    90    59    58    1
    91    23    24   ar
    92    58    60    1
    93    58    61    1
    94    71    69    1
    95    61    69   ar
    96    61    62   ar
    97    69    67   ar
    98    64    62    1
    99    62    63   ar
   100    67    70    1
   101    67    65   ar
   102    63    65   ar
   103    63    66    1
   104    65    68    1
@<TRIPOS>MOLECULE
crystal_redock_e24_er3_1.pdbqt
 102 104 0 0 0
SMALL
GASTEIGER

@<TRIPOS>ATOM
      1 C         -32.9640   12.0520   28.7940 C.3     1  UNL1        0.0890
      2 H         -33.1200   12.4130   29.8100 H       1  UNL1        0.0870
      3 N         -33.6930   10.8000   28.6560 N.am    1  UNL1       -0.3460
      4 C         -33.8550    9.8790   29.8390 C.2     1  UNL1        0.2410
      5 O         -33.3870   10.1660   30.8910 O.2     1  UNL1       -0.2710
      6 H         -34.0820   10.5740   27.7510 H       1  UNL1        0.1630
      7 C         -34.6170    8.5900   29.6800 C.3     1  UNL1        0.0920
      8 H         -35.5520    8.7890   29.1560 H       1  UNL1        0.0880
      9 N         -33.8430    7.6630   28.8490 N.am    1  UNL1       -0.3460
     10 C         -34.0740    7.6060   27.4260 C.2     1  UNL1        0.2400
     11 O         -34.8800    8.2980   26.9340 O.2     1  UNL1       -0.2710
     12 H         -33.1460    7.0590   29.2590 H       1  UNL1        0.1630
     13 C         -33.2490    6.6160   26.5470 C.3     1  UNL1        0.0860
     14 H         -33.8660    6.0740   25.8310 H       1  UNL1        0.0860
     15 N         -32.2770    7.3690   25.7730 N.am    1  UNL1       -0.3430
     16 C         -32.6000    7.7660   24.4010 C.2     1  UNL1        0.2730
     17 O         -33.6420    7.4710   23.9280 O.2     1  UNL1       -0.2660
     18 H         -31.3880    7.6150   26.1840 H       1  UNL1        0.1630
     19 C         -31.5820    8.5650   23.5710 C.ar    1  UNL1        0.1540
     20 C         -31.3680    9.9790   23.5940 C.ar    1  UNL1       -0.0170
     21 C         -30.3340   10.2050   22.6580 C.ar    1  UNL1        0.0770
     22 H         -31.8840   10.7270   24.1970 H       1  UNL1        0.0910
     23 O         -30.0000    9.0500   22.1630 O.2     1  UNL1       -0.2180
     24 N         -30.7140    8.0770   22.6800 N.ar    1  UNL1       -0.1230
     25 C         -29.7230   11.5530   22.2980 C.3     1  UNL1       -0.0290
     26 H         -29.9070   11.7660   21.2450 H       1  UNL1        0.0360
     27 H         -30.1760   12.3320   22.9100 H       1  UNL1        0.0360
     28 H         -28.6490   11.5260   22.4800 H       1  UNL1        0.0360
     29 C         -32.5440    5.6210   27.4340 C.3     1  UNL1       -0.0490
     30 H         -31.4760    5.8370   27.4440 H       1  UNL1        0.0300
     31 H         -32.9390    5.6930   28.4470 H       1  UNL1        0.0300
     32 H         -32.7070    4.6130   27.0510 H       1  UNL1        0.0300
     33 C         -34.8550    7.9520   31.0800 C.3     1  UNL1       -0.0330
     34 H         -34.0240    8.2470   31.7210 H       1  UNL1        0.0420
     35 C         -36.1660    8.4910   31.7350 C.3     1  UNL1       -0.0710
     36 H         -37.0080    8.3060   31.0670 H       1  UNL1        0.0280
     37 H         -36.3340    7.9800   32.6820 H       1  UNL1        0.0280
     38 H         -36.0700    9.5620   31.9110 H       1  UNL1        0.0280
     39 C         -34.8670    6.3920   30.9890 C.3     1  UNL1       -0.0710
     40 H         -35.3070    5.9790   31.8970 H       1  UNL1        0.0280
     41 H         -35.4560    6.0830   30.1260 H       1  UNL1        0.0280
     42 H         -33.8460    6.0270   30.8810 H       1  UNL1        0.0280
     43 C         -33.4930   13.0540   27.7270 C.2     1  UNL1        0.2400
     44 O         -33.4280   12.7770   26.5730 O.2     1  UNL1       -0.2710
     45 N         -34.0900   14.3540   28.1450 N.am    1  UNL1       -0.3550
     46 H         -34.1550   14.5980   29.1230 H       1  UNL1        0.1620
     47 C         -34.5900   15.2950   27.1190 C.3     1  UNL1        0.0130
     48 H         -34.0660   15.0830   26.1870 H       1  UNL1        0.0720
     49 C         -34.3060   16.7130   27.5600 C.3     1  UNL1       -0.0380
     50 H         -34.8510   17.3520   26.8660 H       1  UNL1        0.0360
     51 H         -34.5380   16.7410   28.6250 H       1  UNL1        0.0360
     52 C         -32.8160   17.0950   27.4280 C.3     1  UNL1        0.0180
     53 H         -32.7510   18.1390   27.7320 H       1  UNL1        0.0480
     54 H         -32.2650   16.3310   27.9780 H       1  UNL1        0.0480
     55 C         -32.2820   17.0400   25.9690 C.2     1  UNL1        0.2590
     56 O         -32.8490   17.6160   25.0980 O.2     1  UNL1       -0.2650
     57 O         -31.1140   16.2810   25.6830 O.3     1  UNL1       -0.3170
     58 C         -31.3690   15.0640   24.9750 C.3     1  UNL1        0.0520
     59 H         -30.8130   14.2920   25.5070 H       1  UNL1        0.0820
     60 H         -32.4530   14.9940   24.8900 H       1  UNL1        0.0820
     61 C         -30.7730   15.2060   23.5490 C.ar    1  UNL1       -0.0340
     62 C         -29.3940   15.1800   23.3650 C.ar    1  UNL1       -0.0750
     63 C         -28.8580   15.3070   22.0840 C.ar    1  UNL1       -0.0820
     64 H         -28.7330   15.0600   24.2240 H       1  UNL1        0.0840
     65 C         -29.7070   15.4630   20.9850 C.ar    1  UNL1       -0.0830
     66 H         -27.7770   15.2840   21.9430 H       1  UNL1        0.0830
     67 C         -31.0820   15.4920   21.1740 C.ar    1  UNL1       -0.0820
     68 H         -29.2960   15.5630   19.9800 H       1  UNL1        0.0830
     69 C         -31.6220   15.3630   22.4520 C.ar    1  UNL1       -0.0750
     70 H         -31.7410   15.6170   20.3150 H       1  UNL1        0.0830
     71 H         -32.7030   15.3860   22.5930 H       1  UNL1        0.0840
     72 C         -36.0950   15.1090   26.9370 C.3     1  UNL1       -0.0390
     73 H         -36.4180   14.5130   27.7910 H       1  UNL1        0.0360
     74 H         -36.4950   16.1110   26.7900 H       1  UNL1        0.0360
     75 C         -36.4320   14.2660   25.6170 C.3     1  UNL1       -0.0010
     76 C         -37.5420   15.0700   24.7080 C.3     1  UNL1       -0.0350
     77 C         -38.5590   14.2250   24.4130 C.3     1  UNL1        0.0850
     78 H         -38.0210   15.8460   25.3040 H       1  UNL1        0.0360
     79 H         -37.1210   15.3130   23.7330 H       1  UNL1        0.0360
     80 N         -38.4050   13.0190   25.3080 N.4     1  UNL1       -0.0490
     81 H         -39.4690   14.7580   24.6880 H       1  UNL1        0.0750
     82 H         -38.3950   13.9230   23.3790 H       1  UNL1        0.0750
     83 C         -36.9110   13.1040   25.9140 C.3     1  UNL1        0.1930
     84 H         -39.0650   13.1360   26.0620 H       1  UNL1        0.2800
     85 H         -38.4620   12.2090   24.7070 H       1  UNL1        0.2800
     86 H         -36.1200   12.4600   25.5300 H       1  UNL1        0.1290
     87 H         -35.5330   13.9170   25.1090 H       1  UNL1        0.0460
     88 O         -36.9380   12.8760   27.3250 O.3     1  UNL1       -0.3690
     89 H         -36.2540   12.2460   27.5600 H       1  UNL1        0.2120
     90 C         -31.4840   11.7930   28.5610 C.3     1  UNL1       -0.0350
     91 H         -31.3120   10.7740   28.9070 H       1  UNL1        0.0370
     92 H         -31.3060   12.0510   27.5170 H       1  UNL1        0.0370
     93 C         -30.5460   12.7110   29.4080 C.3     1  UNL1       -0.0590
     94 H         -29.5710   12.2270   29.4620 H       1  UNL1        0.0380
     95 C         -30.3470   14.1140   28.7530 C.3     1  UNL1       -0.0730
     96 H         -29.3310   14.1940   28.3670 H       1  UNL1        0.0280
     97 H         -31.0560   14.2380   27.9340 H       1  UNL1        0.0280
     98 H         -30.5140   14.8910   29.4990 H       1  UNL1        0.0280
     99 C         -31.0660   12.8480   30.8420 C.3     1  UNL1       -0.0730
    100 H         -32.0990   12.5030   30.8890 H       1  UNL1        0.0280
    101 H         -30.4510   12.2450   31.5110 H       1  UNL1        0.0280
    102 H         -31.0160   13.8930   31.1480 H       1  UNL1        0.0280
@<TRIPOS>BOND
     1    68    65    1
     2    70    67    1
     3    65    67   ar
     4    65    63   ar
     5    67    69   ar
     6    26    25    1
     7    66    63    1
     8    63    62   ar
     9    23    21   ar
    10    23    24   ar
    11    25    28    1
    12    25    21    1
    13    25    27    1
    14    69    71    1
    15    69    61   ar
    16    21    20   ar
    17    24    19   ar
    18    62    61   ar
    19    62    64    1
    20    82    77    1
    21    61    58    1
    22    19    20   ar
    23    19    16    1
    24    20    22    1
    25    79    76    1
    26    17    16    2
    27    16    15   am
    28    77    81    1
    29    77    76    1
    30    77    80    1
    31    85    80    1
    32    76    78    1
    33    76    75    1
    34    60    58    1
    35    58    59    1
    36    58    57    1
    37    56    55    2
    38    87    75    1
    39    80    83    1
    40    80    84    1
    41    86    83    1
    42    75    83    1
    43    75    72    1
    44    57    55    1
    45    15    18    1
    46    15    13    1
    47    14    13    1
    48    83    88    1
    49    55    52    1
    50    48    47    1
    51    13    10    1
    52    13    29    1
    53    44    43    2
    54    74    72    1
    55    50    49    1
    56    11    10    2
    57    72    47    1
    58    72    73    1
    59    32    29    1
    60    47    49    1
    61    47    45    1
    62    88    89    1
    63    10     9   am
    64    52    49    1
    65    52    53    1
    66    52    54    1
    67    29    30    1
    68    29    31    1
    69    92    90    1
    70    49    51    1
    71    43    45   am
    72    43     1    1
    73     6     3    1
    74    97    95    1
    75    45    46    1
    76    96    95    1
    77    90     1    1
    78    90    91    1
    79    90    93    1
    80     3     1    1
    81     3     4   am
    82    95    93    1
    83    95    98    1
    84     1     2    1
    85     9    12    1
    86     9     7    1
    87     8     7    1
    88    93    94    1
    89    93    99    1
    90     7     4    1
    91     7    33    1
    92     4     5    2
    93    41    39    1
    94    99   100    1
    95    99   102    1
    96    99   101    1
    97    42    39    1
    98    39    33    1
    99    39    40    1
   100    36    35    1
   101    33    34    1
   102    33    35    1
   103    35    38    1
   104    35    37    1
@<TRIPOS>MOLECULE
crystal_redock_e24_er3_1.pdbqt
 102 104 0 0 0
SMALL
GASTEIGER

@<TRIPOS>ATOM
      1 C         -35.1580    8.6380   27.1480 C.3     1  UNL1        0.0890
      2 H         -35.0230    7.8910   27.9310 H       1  UNL1        0.0870
      3 N         -34.1480    9.6670   27.3460 N.am    1  UNL1       -0.3460
      4 C         -33.4240    9.7800   28.6650 C.2     1  UNL1        0.2410
      5 O         -33.6750    9.0340   29.5530 O.2     1  UNL1       -0.2710
      6 H         -33.9510   10.2940   26.5790 H       1  UNL1        0.1630
      7 C         -32.3780   10.8470   28.8500 C.3     1  UNL1        0.0920
      8 H         -31.4510   10.5280   28.3740 H       1  UNL1        0.0880
      9 N         -32.8090   12.0770   28.1780 N.am    1  UNL1       -0.3460
     10 C         -32.0060   12.6390   27.1200 C.2     1  UNL1        0.2400
     11 O         -31.0100   12.1160   26.7980 O.2     1  UNL1       -0.2710
     12 H         -33.6650   12.5410   28.4470 H       1  UNL1        0.1630
     13 C         -32.4680   13.9500   26.4110 C.3     1  UNL1        0.0860
     14 H         -32.0860   14.8480   26.8950 H       1  UNL1        0.0860
     15 N         -31.9510   13.9580   25.0520 N.am    1  UNL1       -0.3430
     16 C         -31.2000   15.1210   24.5730 C.2     1  UNL1        0.2730
     17 O         -31.0200   16.0450   25.2880 O.2     1  UNL1       -0.2660
     18 H         -32.1120   13.1650   24.4480 H       1  UNL1        0.1630
     19 C         -30.6470   15.1420   23.1400 C.ar    1  UNL1        0.1540
     20 C         -31.2790   15.6850   21.9770 C.ar    1  UNL1       -0.0170
     21 C         -30.3650   15.4550   20.9250 C.ar    1  UNL1        0.0770
     22 H         -32.2530   16.1710   21.9070 H       1  UNL1        0.0910
     23 O         -29.3310   14.8520   21.4350 O.2     1  UNL1       -0.2180
     24 N         -29.4720   14.6580   22.7260 N.ar    1  UNL1       -0.1230
     25 C         -30.5550   15.8430   19.4640 C.3     1  UNL1       -0.0290
     26 H         -29.6780   16.3880   19.1160 H       1  UNL1        0.0360
     27 H         -30.6840   14.9430   18.8640 H       1  UNL1        0.0360
     28 H         -31.4370   16.4740   19.3680 H       1  UNL1        0.0360
     29 C         -33.9740   14.0090   26.3910 C.3     1  UNL1       -0.0490
     30 H         -34.3620   13.1980   25.7740 H       1  UNL1        0.0300
     31 H         -34.3550   13.9070   27.4060 H       1  UNL1        0.0300
     32 H         -34.2950   14.9650   25.9760 H       1  UNL1        0.0300
     33 C         -32.1880   11.1290   30.3700 C.3     1  UNL1       -0.0330
     34 H         -32.0780   10.1670   30.8710 H       1  UNL1        0.0420
     35 C         -30.8880   11.9490   30.6380 C.3     1  UNL1       -0.0710
     36 H         -30.4770   11.6720   31.6080 H       1  UNL1        0.0280
     37 H         -30.1570   11.7360   29.8590 H       1  UNL1        0.0280
     38 H         -31.1230   13.0140   30.6350 H       1  UNL1        0.0280
     39 C         -33.4430   11.8440   30.9670 C.3     1  UNL1       -0.0710
     40 H         -33.5630   12.8200   30.4960 H       1  UNL1        0.0280
     41 H         -34.3300   11.2380   30.7800 H       1  UNL1        0.0280
     42 H         -33.3110   11.9720   32.0410 H       1  UNL1        0.0280
     43 C         -34.9790    8.0360   25.7250 C.2     1  UNL1        0.2400
     44 O         -35.9170    7.5830   25.1530 O.2     1  UNL1       -0.2710
     45 N         -33.6400    8.0330   25.0710 N.am    1  UNL1       -0.3550
     46 H         -32.8360    8.4190   25.5450 H       1  UNL1        0.1620
     47 C         -33.4870    7.4590   23.7160 C.3     1  UNL1        0.0130
     48 H         -34.4800    7.2100   23.3430 H       1  UNL1        0.0720
     49 C         -32.6380    6.2100   23.7960 C.3     1  UNL1       -0.0380
     50 H         -33.2490    5.4110   23.3760 H       1  UNL1        0.0360
     51 H         -31.6870    6.4710   23.3320 H       1  UNL1        0.0360
     52 C         -32.3160    5.7960   25.2490 C.3     1  UNL1        0.0180
     53 H         -31.3140    5.3680   25.2180 H       1  UNL1        0.0480
     54 H         -32.5130    6.6780   25.8580 H       1  UNL1        0.0480
     55 C         -33.2420    4.6780   25.8010 C.2     1  UNL1        0.2590
     56 O         -33.4210    3.6810   25.1800 O.2     1  UNL1       -0.2650
     57 O         -33.8870    4.8640   27.0560 O.3     1  UNL1       -0.3170
     58 C         -35.3010    4.6490   27.0210 C.3     1  UNL1        0.0520
     59 H         -35.6810    5.3110   26.2420 H       1  UNL1        0.0820
     60 H         -35.4340    3.5710   26.9320 H       1  UNL1        0.0820
     61 C         -35.8880    5.1060   28.3830 C.ar    1  UNL1       -0.0340
     62 C         -37.2530    4.9930   28.6260 C.ar    1  UNL1       -0.0750
     63 C         -37.7810    5.4030   29.8500 C.ar    1  UNL1       -0.0820
     64 H         -37.9100    4.5830   27.8580 H       1  UNL1        0.0840
     65 C         -36.9380    5.9300   30.8320 C.ar    1  UNL1       -0.0830
     66 H         -38.8510    5.3110   30.0380 H       1  UNL1        0.0830
     67 C         -35.5770    6.0440   30.5830 C.ar    1  UNL1       -0.0820
     68 H         -37.3420    6.2530   31.7910 H       1  UNL1        0.0830
     69 C         -35.0450    5.6340   29.3630 C.ar    1  UNL1       -0.0750
     70 H         -34.9220    6.4590   31.3500 H       1  UNL1        0.0830
     71 H         -33.9750    5.7260   29.1750 H       1  UNL1        0.0840
     72 C         -32.8130    8.4750   22.7970 C.3     1  UNL1       -0.0390
     73 H         -32.6850    7.9630   21.8430 H       1  UNL1        0.0360
     74 H         -33.4300    9.3720   22.8550 H       1  UNL1        0.0360
     75 C         -31.3520    8.8710   23.3210 C.3     1  UNL1       -0.0010
     76 C         -31.3100   10.4690   23.7080 C.3     1  UNL1       -0.0350
     77 C         -30.2520   11.0410   23.0850 C.3     1  UNL1        0.0850
     78 H         -32.1690   10.9810   23.2750 H       1  UNL1        0.0360
     79 H         -31.0790   10.5920   24.7660 H       1  UNL1        0.0360
     80 N         -29.7630   10.0560   22.0510 N.4     1  UNL1       -0.0490
     81 H         -30.6530   11.9190   22.5770 H       1  UNL1        0.0750
     82 H         -29.4890   11.1580   23.8530 H       1  UNL1        0.0750
     83 C         -30.4550    8.6450   22.4200 C.3     1  UNL1        0.1930
     84 H         -30.1250   10.3690   21.1620 H       1  UNL1        0.2800
     85 H         -28.7650    9.9700   22.1880 H       1  UNL1        0.2800
     86 H         -29.8800    7.8560   22.9070 H       1  UNL1        0.1290
     87 H         -30.9770    8.1710   24.0670 H       1  UNL1        0.0460
     88 O         -31.0080    8.0450   21.2470 O.3     1  UNL1       -0.3690
     89 H         -31.6690    7.3960   21.5010 H       1  UNL1        0.2120
     90 C         -36.5370    9.2670   27.2680 C.3     1  UNL1       -0.0350
     91 H         -36.3590   10.3400   27.3380 H       1  UNL1        0.0370
     92 H         -37.1120    8.8620   26.4350 H       1  UNL1        0.0370
     93 C         -37.2990    8.8610   28.5690 C.3     1  UNL1       -0.0590
     94 H         -36.8960    7.9060   28.9040 H       1  UNL1        0.0380
     95 C         -37.0910    9.8960   29.7210 C.3     1  UNL1       -0.0730
     96 H         -37.7890    9.6850   30.5300 H       1  UNL1        0.0280
     97 H         -36.0700    9.8240   30.0950 H       1  UNL1        0.0280
     98 H         -37.2680   10.9020   29.3420 H       1  UNL1        0.0280
     99 C         -38.7890    8.6530   28.2870 C.3     1  UNL1       -0.0730
    100 H         -38.9100    7.8850   27.5220 H       1  UNL1        0.0280
    101 H         -39.2920    8.3360   29.2010 H       1  UNL1        0.0280
    102 H         -39.2270    9.5870   27.9380 H       1  UNL1        0.0280
@<TRIPOS>BOND
     1    27    25    1
     2    26    25    1
     3    28    25    1
     4    25    21    1
     5    21    23   ar
     6    21    20   ar
     7    84    80    1
     8    88    89    1
     9    88    83    1
    10    23    24   ar
    11    73    72    1
    12    22    20    1
    13    20    19   ar
    14    80    85    1
    15    80    83    1
    16    80    77    1
    17    83    86    1
    18    83    75    1
    19    81    77    1
    20    24    19   ar
    21    72    74    1
    22    72    75    1
    23    72    47    1
    24    77    76    1
    25    77    82    1
    26    19    16    1
    27    78    76    1
    28    75    76    1
    29    75    87    1
    30    51    49    1
    31    48    47    1
    32    50    49    1
    33    76    79    1
    34    47    49    1
    35    47    45    1
    36    49    52    1
    37    18    15    1
    38    16    15   am
    39    16    17    2
    40    15    13    1
    41    45    46    1
    42    45    43   am
    43    44    43    2
    44    56    55    2
    45    53    52    1
    46    52    55    1
    47    52    54    1
    48    43     1    1
    49    30    29    1
    50    55    57    1
    51    32    29    1
    52    59    58    1
    53    29    13    1
    54    29    31    1
    55    13    14    1
    56    13    10    1
    57    92    90    1
    58     6     3    1
    59    11    10    2
    60    60    58    1
    61    58    57    1
    62    58    61    1
    63    10     9   am
    64     1    90    1
    65     1     3    1
    66     1     2    1
    67    90    91    1
    68    90    93    1
    69     3     4   am
    70   100    99    1
    71    64    62    1
    72   102    99    1
    73     9    12    1
    74     9     7    1
    75    99    93    1
    76    99   101    1
    77     8     7    1
    78    61    62   ar
    79    61    69   ar
    80    93    94    1
    81    93    95    1
    82    62    63   ar
    83     4     7    1
    84     4     5    2
    85     7    33    1
    86    71    69    1
    87    98    95    1
    88    69    67   ar
    89    95    97    1
    90    95    96    1
    91    63    66    1
    92    63    65   ar
    93    37    35    1
    94    33    35    1
    95    33    34    1
    96    33    39    1
    97    40    39    1
    98    67    65   ar
    99    67    70    1
   100    38    35    1
   101    35    36    1
   102    41    39    1
   103    65    68    1
   104    39    42    1
@<TRIPOS>MOLECULE
crystal_redock_e24_er3_1.pdbqt
 102 104 0 0 0
SMALL
GASTEIGER

@<TRIPOS>ATOM
      1 C         -32.1900    7.0520   24.7740 C.3     1  UNL1        0.0890
      2 H         -31.1060    6.9820   24.8640 H       1  UNL1        0.0870
      3 N         -32.7640    5.9260   25.4950 N.am    1  UNL1       -0.3460
      4 C         -32.4550    5.7200   26.9570 C.2     1  UNL1        0.2410
      5 O         -31.7400    6.4730   27.5310 O.2     1  UNL1       -0.2710
      6 H         -33.3690    5.2960   24.9880 H       1  UNL1        0.1630
      7 C         -33.0630    4.5530   27.6890 C.3     1  UNL1        0.0920
      8 H         -32.3160    3.7650   27.7900 H       1  UNL1        0.0880
      9 N         -33.4410    4.9670   29.0430 N.am    1  UNL1       -0.3460
     10 C         -33.0480    4.1680   30.1770 C.2     1  UNL1        0.2400
     11 O         -32.4290    3.1880   30.0190 O.2     1  UNL1       -0.2710
     12 H         -33.9770    5.8100   29.1950 H       1  UNL1        0.1630
     13 C         -33.4570    4.6130   31.6160 C.3     1  UNL1        0.0860
     14 H         -32.8780    5.4640   31.9750 H       1  UNL1        0.0860
     15 N         -34.8480    5.0330   31.6020 N.am    1  UNL1       -0.3430
     16 C         -35.1730    6.4460   31.3940 C.2     1  UNL1        0.2730
     17 O         -34.3070    7.2370   31.2420 O.2     1  UNL1       -0.2660
     18 H         -35.5810    4.3510   31.7360 H       1  UNL1        0.1630
     19 C         -36.6390    6.9050   31.3760 C.ar    1  UNL1        0.1540
     20 C         -37.1240    8.2510   31.3390 C.ar    1  UNL1       -0.0170
     21 C         -38.5320    8.1300   31.3350 C.ar    1  UNL1        0.0770
     22 H         -36.5440    9.1730   31.3190 H       1  UNL1        0.0910
     23 O         -38.8120    6.8600   31.3650 O.2     1  UNL1       -0.2180
     24 N         -37.7240    6.1250   31.3890 N.ar    1  UNL1       -0.1230
     25 C         -39.5350    9.2750   31.3010 C.3     1  UNL1       -0.0290
     26 H         -39.1490   10.1130   31.8810 H       1  UNL1        0.0360
     27 H         -39.6930    9.5890   30.2700 H       1  UNL1        0.0360
     28 H         -40.4810    8.9430   31.7280 H       1  UNL1        0.0360
     29 C         -33.2750    3.4620   32.5720 C.3     1  UNL1       -0.0490
     30 H         -33.8400    2.6000   32.2150 H       1  UNL1        0.0300
     31 H         -32.2180    3.2030   32.6320 H       1  UNL1        0.0300
     32 H         -33.6350    3.7490   33.5600 H       1  UNL1        0.0300
     33 C         -34.3290    4.0640   26.9260 C.3     1  UNL1       -0.0330
     34 H         -34.3010    4.5020   25.9280 H       1  UNL1        0.0420
     35 C         -34.3280    2.5130   26.7580 C.3     1  UNL1       -0.0710
     36 H         -34.6800    2.2550   25.7590 H       1  UNL1        0.0280
     37 H         -33.3160    2.1330   26.8960 H       1  UNL1        0.0280
     38 H         -34.9890    2.0660   27.5010 H       1  UNL1        0.0280
     39 C         -35.6320    4.5570   27.6330 C.3     1  UNL1       -0.0710
     40 H         -35.5030    4.5010   28.7140 H       1  UNL1        0.0280
     41 H         -35.8350    5.5880   27.3440 H       1  UNL1        0.0280
     42 H         -36.4690    3.9260   27.3330 H       1  UNL1        0.0280
     43 C         -32.7450    8.3690   25.3890 C.2     1  UNL1        0.2400
     44 O         -33.9190    8.5520   25.4330 O.2     1  UNL1       -0.2710
     45 N         -31.8140    9.3990   25.9300 N.am    1  UNL1       -0.3550
     46 H         -30.8150    9.2530   25.9030 H       1  UNL1        0.1620
     47 C         -32.3570   10.6450   26.5130 C.3     1  UNL1        0.0130
     48 H         -33.4350   10.6500   26.3490 H       1  UNL1        0.0720
     49 C         -31.7250   11.8350   25.8270 C.3     1  UNL1       -0.0380
     50 H         -30.7140   11.9040   26.2290 H       1  UNL1        0.0360
     51 H         -31.8780   11.6740   24.7590 H       1  UNL1        0.0360
     52 C         -32.4250   13.1670   26.1720 C.3     1  UNL1        0.0180
     53 H         -32.8610   13.5220   25.2390 H       1  UNL1        0.0480
     54 H         -33.0670   12.9510   27.0270 H       1  UNL1        0.0480
     55 C         -31.4500   14.2830   26.6410 C.2     1  UNL1        0.2590
     56 O         -31.0510   14.3040   27.7600 O.2     1  UNL1       -0.2650
     57 O         -31.0490   15.2900   25.7200 O.3     1  UNL1       -0.3170
     58 C         -31.9770   15.5060   24.6520 C.3     1  UNL1        0.0520
     59 H         -32.7360   14.7300   24.7600 H       1  UNL1        0.0820
     60 H         -32.2590   16.5560   24.7140 H       1  UNL1        0.0820
     61 C         -31.2270   15.2770   23.3130 C.ar    1  UNL1       -0.0340
     62 C         -31.2690   16.2480   22.3170 C.ar    1  UNL1       -0.0750
     63 C         -30.5960   16.0420   21.1130 C.ar    1  UNL1       -0.0820
     64 H         -31.8290   17.1690   22.4790 H       1  UNL1        0.0840
     65 C         -29.8810   14.8590   20.9060 C.ar    1  UNL1       -0.0830
     66 H         -30.6300   16.8050   20.3350 H       1  UNL1        0.0830
     67 C         -29.8450   13.8930   21.9020 C.ar    1  UNL1       -0.0820
     68 H         -29.3520   14.6910   19.9690 H       1  UNL1        0.0830
     69 C         -30.5150   14.0940   23.1070 C.ar    1  UNL1       -0.0750
     70 H         -29.2880   12.9700   21.7370 H       1  UNL1        0.0830
     71 H         -30.4810   13.3310   23.8850 H       1  UNL1        0.0840
     72 C         -32.0480   10.6940   28.0080 C.3     1  UNL1       -0.0390
     73 H         -31.7310    9.6850   28.2720 H       1  UNL1        0.0360
     74 H         -31.3610   11.5310   28.1340 H       1  UNL1        0.0360
     75 C         -33.3550   11.0210   28.8730 C.3     1  UNL1       -0.0010
     76 C         -32.9550   11.9690   30.1570 C.3     1  UNL1       -0.0350
     77 C         -33.4540   11.4090   31.2850 C.3     1  UNL1        0.0850
     78 H         -31.8770   11.9460   30.3160 H       1  UNL1        0.0360
     79 H         -33.4780   12.9240   30.0940 H       1  UNL1        0.0360
     80 N         -33.8740   10.0020   30.9310 N.4     1  UNL1       -0.0490
     81 H         -32.6170   11.3650   31.9820 H       1  UNL1        0.0750
     82 H         -34.3400   11.9920   31.5320 H       1  UNL1        0.0750
     83 C         -33.9040    9.9400   29.3180 C.3     1  UNL1        0.1930
     84 H         -33.1400    9.3930   31.2630 H       1  UNL1        0.2800
     85 H         -34.8170    9.8910   31.2750 H       1  UNL1        0.2800
     86 H         -34.8520    9.9640   28.7810 H       1  UNL1        0.1290
     87 H         -34.1890   11.3520   28.2530 H       1  UNL1        0.0460
     88 O         -33.2330    8.7660   28.8570 O.3     1  UNL1       -0.3690
     89 H         -33.0120    8.8680   27.9280 H       1  UNL1        0.2120
     90 C         -32.5920    6.9620   23.3110 C.3     1  UNL1       -0.0350
     91 H         -32.7040    5.8970   23.1070 H       1  UNL1        0.0370
     92 H         -33.4480    7.6290   23.2050 H       1  UNL1        0.0370
     93 C         -31.4990    7.4860   22.3260 C.3     1  UNL1       -0.0590
     94 H         -31.7570    7.1340   21.3280 H       1  UNL1        0.0380
     95 C         -31.4460    9.0470   22.2820 C.3     1  UNL1       -0.0730
     96 H         -32.0470    9.4080   21.4480 H       1  UNL1        0.0280
     97 H         -31.8400    9.4510   23.2140 H       1  UNL1        0.0280
     98 H         -30.4140    9.3720   22.1530 H       1  UNL1        0.0280
     99 C         -30.1260    6.9040   22.6740 C.3     1  UNL1       -0.0730
    100 H         -30.2410    5.8670   22.9900 H       1  UNL1        0.0280
    101 H         -29.4810    6.9470   21.7960 H       1  UNL1        0.0280
    102 H         -29.6800    7.4840   23.4810 H       1  UNL1        0.0280
@<TRIPOS>BOND
     1    68    65    1
     2    66    63    1
     3    65    63   ar
     4    65    67   ar
     5    63    62   ar
     6    94    93    1
     7    96    95    1
     8    70    67    1
     9   101    99    1
    10    67    69   ar
    11    98    95    1
    12    95    93    1
    13    95    97    1
    14    62    64    1
    15    62    61   ar
    16    93    99    1
    17    93    90    1
    18    99   100    1
    19    99   102    1
    20    91    90    1
    21    69    61   ar
    22    69    71    1
    23    92    90    1
    24    90     1    1
    25    61    58    1
    26    58    60    1
    27    58    59    1
    28    58    57    1
    29    51    49    1
    30     1     2    1
    31     1    43    1
    32     1     3    1
    33     6     3    1
    34    53    52    1
    35    43    44    2
    36    43    45   am
    37     3     4   am
    38    57    55    1
    39    36    35    1
    40    49    52    1
    41    49    50    1
    42    49    47    1
    43    46    45    1
    44    34    33    1
    45    45    47    1
    46    52    55    1
    47    52    54    1
    48    48    47    1
    49    47    72    1
    50    55    56    2
    51    35    37    1
    52    35    33    1
    53    35    38    1
    54    33    39    1
    55    33     7    1
    56     4     5    2
    57     4     7    1
    58    42    39    1
    59    41    39    1
    60    39    40    1
    61     7     8    1
    62     7     9    1
    63    89    88    1
    64    72    74    1
    65    72    73    1
    66    72    75    1
    67    87    75    1
    68    86    83    1
    69    88    83    1
    70    75    83    1
    71    75    76    1
    72     9    12    1
    73     9    10   am
    74    83    80    1
    75    11    10    2
    76    79    76    1
    77    76    78    1
    78    76    77    1
    79    10    13    1
    80    27    25    1
    81    80    84    1
    82    80    85    1
    83    80    77    1
    84    17    16    2
    85    77    82    1
    86    77    81    1
    87    25    21    1
    88    25    28    1
    89    25    26    1
    90    22    20    1
    91    21    20   ar
    92    21    23   ar
    93    20    19   ar
    94    23    24   ar
    95    19    24   ar
    96    19    16    1
    97    16    15   am
    98    15    13    1
    99    15    18    1
   100    13    14    1
   101    13    29    1
   102    30    29    1
   103    29    31    1
   104    29    32    1
@<TRIPOS>MOLECULE
crystal_redock_e24_er3_1.pdbqt
 102 104 0 0 0
SMALL
GASTEIGER

@<TRIPOS>ATOM
      1 C         -34.9410    8.3420   31.2220 C.3     1  UNL1        0.0890
      2 H         -34.5400    8.4190   32.2330 H       1  UNL1        0.0870
      3 N         -34.0360    9.0600   30.3370 N.am    1  UNL1       -0.3460
      4 C         -33.4730   10.3980   30.7450 C.2     1  UNL1        0.2410
      5 O         -33.7650   10.8780   31.7900 O.2     1  UNL1       -0.2710
      6 H         -33.8020    8.6350   29.4500 H       1  UNL1        0.1630
      7 C         -32.5340   11.1250   29.8180 C.3     1  UNL1        0.0920
      8 H         -31.8450   10.4080   29.3720 H       1  UNL1        0.0880
      9 N         -33.2980   11.7300   28.7240 N.am    1  UNL1       -0.3460
     10 C         -33.4420   11.0300   27.4710 C.2     1  UNL1        0.2400
     11 O         -32.9480    9.9780   27.3270 O.2     1  UNL1       -0.2710
     12 H         -33.7290   12.6370   28.8330 H       1  UNL1        0.1630
     13 C         -34.2530   11.6810   26.3090 C.3     1  UNL1        0.0860
     14 H         -35.0090   12.3820   26.6630 H       1  UNL1        0.0860
     15 N         -33.3440   12.4400   25.4660 N.am    1  UNL1       -0.3430
     16 C         -33.0130   13.8210   25.8230 C.2     1  UNL1        0.2730
     17 O         -33.4860   14.3130   26.7880 O.2     1  UNL1       -0.2660
     18 H         -32.9470   12.0120   24.6420 H       1  UNL1        0.1630
     19 C         -32.0520   14.6350   24.9420 C.ar    1  UNL1        0.1540
     20 C         -31.0640   14.1250   24.0410 C.ar    1  UNL1       -0.0170
     21 C         -30.4570   15.2720   23.4820 C.ar    1  UNL1        0.0770
     22 H         -30.8250   13.0840   23.8260 H       1  UNL1        0.0910
     23 O         -31.0360   16.3120   24.0060 O.2     1  UNL1       -0.2180
     24 N         -31.9700   15.9660   24.8620 N.ar    1  UNL1       -0.1230
     25 C         -29.3330   15.2860   22.4550 C.3     1  UNL1       -0.0290
     26 H         -29.6620   15.8190   21.5630 H       1  UNL1        0.0360
     27 H         -28.4620   15.7870   22.8770 H       1  UNL1        0.0360
     28 H         -29.0700   14.2620   22.1890 H       1  UNL1        0.0360
     29 C         -34.9300   10.6040   25.4990 C.3     1  UNL1       -0.0490
     30 H         -34.2300   10.2090   24.7630 H       1  UNL1        0.0300
     31 H         -35.2520    9.8000   26.1620 H       1  UNL1        0.0300
     32 H         -35.7970   11.0230   24.9880 H       1  UNL1        0.0300
     33 C         -31.7890   12.2410   30.6070 C.3     1  UNL1       -0.0330
     34 H         -32.3030   12.3710   31.5590 H       1  UNL1        0.0420
     35 C         -30.3170   11.8280   30.9220 C.3     1  UNL1       -0.0710
     36 H         -29.6680   12.6990   30.8310 H       1  UNL1        0.0280
     37 H         -30.2590   11.4360   31.9370 H       1  UNL1        0.0280
     38 H         -29.9960   11.0610   30.2170 H       1  UNL1        0.0280
     39 C         -31.8430   13.6000   29.8380 C.3     1  UNL1       -0.0710
     40 H         -32.4290   14.3190   30.4120 H       1  UNL1        0.0280
     41 H         -30.8310   13.9820   29.7030 H       1  UNL1        0.0280
     42 H         -32.3060   13.4480   28.8630 H       1  UNL1        0.0280
     43 C         -35.0380    6.8660   30.7400 C.2     1  UNL1        0.2400
     44 O         -35.5550    6.0510   31.4330 O.2     1  UNL1       -0.2710
     45 N         -34.4930    6.4700   29.4100 N.am    1  UNL1       -0.3550
     46 H         -34.0560    7.1550   28.8100 H       1  UNL1        0.1620
     47 C         -34.5940    5.0630   28.9660 C.3     1  UNL1        0.0130
     48 H         -34.9520    4.4710   29.8080 H       1  UNL1        0.0720
     49 C         -33.2300    4.5760   28.5340 C.3     1  UNL1       -0.0380
     50 H         -32.5130    5.2450   29.0120 H       1  UNL1        0.0360
     51 H         -33.2140    3.5100   28.7580 H       1  UNL1        0.0360
     52 C         -33.0010    4.7060   27.0120 C.3     1  UNL1        0.0180
     53 H         -32.3380    3.8860   26.7420 H       1  UNL1        0.0480
     54 H         -33.9950    4.7730   26.5690 H       1  UNL1        0.0480
     55 C         -32.2600    6.0090   26.5990 C.2     1  UNL1        0.2590
     56 O         -31.8870    6.7780   27.4250 O.2     1  UNL1       -0.2650
     57 O         -32.0440    6.2790   25.2200 O.3     1  UNL1       -0.3170
     58 C         -32.7250    7.4430   24.7410 C.3     1  UNL1        0.0520
     59 H         -33.5100    7.0740   24.0800 H       1  UNL1        0.0820
     60 H         -32.9860    8.0180   25.6280 H       1  UNL1        0.0820
     61 C         -31.7210    8.2710   23.8960 C.ar    1  UNL1       -0.0340
     62 C         -30.7980    7.6260   23.0800 C.ar    1  UNL1       -0.0750
     63 C         -29.8960    8.3700   22.3210 C.ar    1  UNL1       -0.0820
     64 H         -30.7800    6.5360   23.0350 H       1  UNL1        0.0840
     65 C         -29.9180    9.7660   22.3820 C.ar    1  UNL1       -0.0830
     66 H         -29.1740    7.8610   21.6810 H       1  UNL1        0.0830
     67 C         -30.8390   10.4060   23.2000 C.ar    1  UNL1       -0.0820
     68 H         -29.2170   10.3550   21.7910 H       1  UNL1        0.0830
     69 C         -31.7440    9.6660   23.9590 C.ar    1  UNL1       -0.0750
     70 H         -30.8520   11.4950   23.2470 H       1  UNL1        0.0830
     71 H         -32.4650   10.1760   24.5980 H       1  UNL1        0.0840
     72 C         -35.5670    4.9610   27.7930 C.3     1  UNL1       -0.0390
     73 H         -35.0690    5.4560   26.9590 H       1  UNL1        0.0360
     74 H         -35.8270    3.9050   27.7230 H       1  UNL1        0.0360
     75 C         -36.9240    5.7630   28.0770 C.3     1  UNL1       -0.0010
     76 C         -37.9190    4.8630   29.0270 C.3     1  UNL1       -0.0350
     77 C         -39.1410    4.8030   28.4460 C.3     1  UNL1        0.0850
     78 H         -37.5900    3.8240   29.0350 H       1  UNL1        0.0360
     79 H         -38.1090    5.3820   29.9670 H       1  UNL1        0.0360
     80 N         -38.9820    5.3030   27.0310 N.4     1  UNL1       -0.0490
     81 H         -39.4010    3.7450   28.4230 H       1  UNL1        0.0750
     82 H         -39.7630    5.5040   29.0020 H       1  UNL1        0.0750
     83 C         -37.5450    6.0360   26.9780 C.3     1  UNL1        0.1930
     84 H         -38.9480    4.4840   26.4400 H       1  UNL1        0.2800
     85 H         -39.7030    5.9970   26.8900 H       1  UNL1        0.2800
     86 H         -37.4780    7.1240   26.9770 H       1  UNL1        0.1290
     87 H         -36.7390    6.7920   28.3880 H       1  UNL1        0.0460
     88 O         -36.8150    5.6080   25.8260 O.3     1  UNL1       -0.3690
     89 H         -36.6850    6.3530   25.2350 H       1  UNL1        0.2120
     90 C         -36.3140    8.9910   31.1610 C.3     1  UNL1       -0.0350
     91 H         -36.9460    8.3920   31.8170 H       1  UNL1        0.0370
     92 H         -36.1450   10.0450   31.3800 H       1  UNL1        0.0370
     93 C         -36.9710    8.9340   29.7450 C.3     1  UNL1       -0.0590
     94 H         -36.4180    8.2060   29.1530 H       1  UNL1        0.0380
     95 C         -38.4610    8.4680   29.8050 C.3     1  UNL1       -0.0730
     96 H         -38.9610    8.9530   30.6430 H       1  UNL1        0.0280
     97 H         -38.9650    8.7380   28.8770 H       1  UNL1        0.0280
     98 H         -38.4980    7.3870   29.9370 H       1  UNL1        0.0280
     99 C         -36.8520   10.2840   29.0330 C.3     1  UNL1       -0.0730
    100 H         -37.1530   11.0820   29.7120 H       1  UNL1        0.0280
    101 H         -35.8180   10.4420   28.7230 H       1  UNL1        0.0280
    102 H         -37.4980   10.2900   28.1550 H       1  UNL1        0.0280
@<TRIPOS>BOND
     1    26    25    1
     2    66    63    1
     3    68    65    1
     4    28    25    1
     5    63    65   ar
     6    63    62   ar
     7    65    67   ar
     8    25    27    1
     9    25    21    1
    10    64    62    1
    11    62    61   ar
    12    67    70    1
    13    67    69   ar
    14    21    23   ar
    15    21    20   ar
    16    22    20    1
    17    61    69   ar
    18    61    58    1
    19    69    71    1
    20    23    24   ar
    21    20    19   ar
    22    59    58    1
    23    18    15    1
    24    58    57    1
    25    58    60    1
    26    30    29    1
    27    24    19   ar
    28    19    16    1
    29    32    29    1
    30    57    55    1
    31    89    88    1
    32    15    16   am
    33    15    13    1
    34    29    31    1
    35    29    13    1
    36    16    17    2
    37    88    83    1
    38    13    14    1
    39    13    10    1
    40    84    80    1
    41    54    52    1
    42    55    52    1
    43    55    56    2
    44    53    52    1
    45    85    80    1
    46    73    72    1
    47    86    83    1
    48    83    80    1
    49    83    75    1
    50    52    49    1
    51    80    77    1
    52    11    10    2
    53    10     9   am
    54    74    72    1
    55    72    75    1
    56    72    47    1
    57    75    87    1
    58    75    76    1
    59   102    99    1
    60    81    77    1
    61    77    82    1
    62    77    76    1
    63    49    51    1
    64    49    47    1
    65    49    50    1
    66   101    99    1
    67     9    12    1
    68     9     7    1
    69    46    45    1
    70    42    39    1
    71    97    95    1
    72    47    45    1
    73    47    48    1
    74    76    78    1
    75    76    79    1
    76    99   100    1
    77    99    93    1
    78    94    93    1
    79     8     7    1
    80    45    43   am
    81     6     3    1
    82    41    39    1
    83    93    95    1
    84    93    90    1
    85    95    98    1
    86    95    96    1
    87     7    33    1
    88     7     4    1
    89    39    40    1
    90    39    33    1
    91    38    35    1
    92     3     4   am
    93     3     1    1
    94    33    35    1
    95    33    34    1
    96    43     1    1
    97    43    44    2
    98     4     5    2
    99    36    35    1
   100    35    37    1
   101    90     1    1
   102    90    92    1
   103    90    91    1
   104     1     2    1
@<TRIPOS>MOLECULE
crystal_redock_e24_er3_1.pdbqt
 102 104 0 0 0
SMALL
GASTEIGER

@<TRIPOS>ATOM
      1 C         -30.7660   14.2140   24.1040 C.3     1  UNL1        0.0890
      2 H         -29.6860   14.1930   23.9580 H       1  UNL1        0.0870
      3 N         -31.2100   12.8410   24.2890 N.am    1  UNL1       -0.3460
      4 C         -30.6380   11.7350   23.4390 C.2     1  UNL1        0.2410
      5 O         -29.8230   11.9750   22.6100 O.2     1  UNL1       -0.2710
      6 H         -31.9060   12.6570   24.9980 H       1  UNL1        0.1630
      7 C         -31.1050   10.3180   23.6470 C.3     1  UNL1        0.0920
      8 H         -30.6270    9.9100   24.5380 H       1  UNL1        0.0880
      9 N         -32.5510   10.3100   23.8890 N.am    1  UNL1       -0.3460
     10 C         -33.0550   10.3370   25.2400 C.2     1  UNL1        0.2400
     11 O         -32.3120   10.3650   26.1430 O.2     1  UNL1       -0.2710
     12 H         -33.2040   10.2850   23.1190 H       1  UNL1        0.1630
     13 C         -34.5950   10.3260   25.4910 C.3     1  UNL1        0.0860
     14 H         -35.1490    9.8390   24.6880 H       1  UNL1        0.0860
     15 N         -34.8690    9.5710   26.7020 N.am    1  UNL1       -0.3430
     16 C         -35.1220    8.1310   26.6130 C.2     1  UNL1        0.2730
     17 O         -35.1050    7.5900   25.5630 O.2     1  UNL1       -0.2660
     18 H         -34.8840   10.0420   27.5960 H       1  UNL1        0.1630
     19 C         -35.4120    7.3200   27.8860 C.ar    1  UNL1        0.1540
     20 C         -36.6910    7.0550   28.4700 C.ar    1  UNL1       -0.0170
     21 C         -36.4140    6.2760   29.6150 C.ar    1  UNL1        0.0770
     22 H         -37.6710    7.3790   28.1170 H       1  UNL1        0.0910
     23 O         -35.1240    6.1160   29.6720 O.2     1  UNL1       -0.2180
     24 N         -34.5180    6.7170   28.6740 N.ar    1  UNL1       -0.1230
     25 C         -37.4370    5.7230   30.5990 C.3     1  UNL1       -0.0290
     26 H         -38.3940    6.2190   30.4450 H       1  UNL1        0.0360
     27 H         -37.5530    4.6520   30.4390 H       1  UNL1        0.0360
     28 H         -37.0940    5.9030   31.6180 H       1  UNL1        0.0360
     29 C         -35.0940   11.7410   25.6400 C.3     1  UNL1       -0.0490
     30 H         -35.6850   11.8230   26.5510 H       1  UNL1        0.0300
     31 H         -34.2440   12.4210   25.6950 H       1  UNL1        0.0300
     32 H         -35.7120   12.0000   24.7800 H       1  UNL1        0.0300
     33 C         -30.7890    9.4760   22.3760 C.3     1  UNL1       -0.0330
     34 H         -30.6870   10.1680   21.5400 H       1  UNL1        0.0420
     35 C         -29.4360    8.7120   22.5210 C.3     1  UNL1       -0.0710
     36 H         -28.6110    9.4220   22.4690 H       1  UNL1        0.0280
     37 H         -29.4120    8.1960   23.4810 H       1  UNL1        0.0280
     38 H         -29.3410    7.9850   21.7150 H       1  UNL1        0.0280
     39 C         -31.9610    8.4950   22.0500 C.3     1  UNL1       -0.0710
     40 H         -31.5850    7.4720   22.0340 H       1  UNL1        0.0280
     41 H         -32.7350    8.5860   22.8130 H       1  UNL1        0.0280
     42 H         -32.3830    8.7440   21.0760 H       1  UNL1        0.0280
     43 C         -31.1730   15.0390   25.3590 C.2     1  UNL1        0.2400
     44 O         -30.9710   16.2100   25.3880 O.2     1  UNL1       -0.2710
     45 N         -31.8210   14.3690   26.5230 N.am    1  UNL1       -0.3550
     46 H         -32.0010   13.3760   26.5090 H       1  UNL1        0.1620
     47 C         -32.2020   15.1680   27.7080 C.3     1  UNL1        0.0130
     48 H         -31.2990   15.6280   28.1070 H       1  UNL1        0.0720
     49 C         -32.8200   14.2570   28.7460 C.3     1  UNL1       -0.0380
     50 H         -32.5270   14.6700   29.7120 H       1  UNL1        0.0360
     51 H         -33.8750   14.1830   28.4810 H       1  UNL1        0.0360
     52 C         -32.2550   12.8210   28.6960 C.3     1  UNL1        0.0180
     53 H         -33.0850   12.1880   28.3840 H       1  UNL1        0.0480
     54 H         -31.3540   12.8800   28.0840 H       1  UNL1        0.0480
     55 C         -31.7990   12.2790   30.0790 C.2     1  UNL1        0.2590
     56 O         -31.0620   12.9140   30.7630 O.2     1  UNL1       -0.2650
     57 O         -32.2620   11.0070   30.5160 O.3     1  UNL1       -0.3170
     58 C         -33.1550   10.3670   29.6000 C.3     1  UNL1        0.0520
     59 H         -33.4360   11.1330   28.8780 H       1  UNL1        0.0820
     60 H         -32.6400    9.4660   29.2660 H       1  UNL1        0.0820
     61 C         -34.4240    9.9430   30.3870 C.ar    1  UNL1       -0.0340
     62 C         -34.3130    9.1000   31.4870 C.ar    1  UNL1       -0.0750
     63 C         -35.4530    8.7190   32.1930 C.ar    1  UNL1       -0.0820
     64 H         -33.3320    8.7370   31.7960 H       1  UNL1        0.0840
     65 C         -36.7090    9.1830   31.7940 C.ar    1  UNL1       -0.0830
     66 H         -35.3620    8.0590   33.0570 H       1  UNL1        0.0830
     67 C         -36.8150   10.0220   30.6930 C.ar    1  UNL1       -0.0820
     68 H         -37.6050    8.8910   32.3400 H       1  UNL1        0.0830
     69 C         -35.6780   10.4070   29.9850 C.ar    1  UNL1       -0.0750
     70 H         -37.7970   10.3800   30.3820 H       1  UNL1        0.0830
     71 H         -35.7700   11.0670   29.1220 H       1  UNL1        0.0840
     72 C         -33.2120   16.2400   27.3050 C.3     1  UNL1       -0.0390
     73 H         -33.3650   16.8450   28.2000 H       1  UNL1        0.0360
     74 H         -32.8060   16.6970   26.4030 H       1  UNL1        0.0360
     75 C         -34.6300   15.6040   26.9170 C.3     1  UNL1       -0.0010
     76 C         -34.8720   15.7230   25.2950 C.3     1  UNL1       -0.0350
     77 C         -36.0840   16.2870   25.0750 C.3     1  UNL1        0.0850
     78 H         -34.1740   16.4420   24.8650 H       1  UNL1        0.0360
     79 H         -34.9690   14.7300   24.8570 H       1  UNL1        0.0360
     80 N         -36.5490   16.8610   26.3910 N.4     1  UNL1       -0.0490
     81 H         -35.9020   17.1030   24.3750 H       1  UNL1        0.0750
     82 H         -36.7400   15.4640   24.7940 H       1  UNL1        0.0750
     83 C         -35.5960   16.2120   27.5210 C.3     1  UNL1        0.1930
     84 H         -36.3690   17.8540   26.3500 H       1  UNL1        0.2800
     85 H         -37.4910   16.5240   26.5320 H       1  UNL1        0.2800
     86 H         -35.9640   15.4110   28.1620 H       1  UNL1        0.1290
     87 H         -34.7810   14.6240   27.3700 H       1  UNL1        0.0460
     88 O         -35.1240   17.2260   28.4090 O.3     1  UNL1       -0.3690
     89 H         -34.3390   16.9120   28.8650 H       1  UNL1        0.2120
     90 C         -31.4430   14.7930   22.8720 C.3     1  UNL1       -0.0350
     91 H         -31.7950   13.9320   22.3050 H       1  UNL1        0.0370
     92 H         -32.1560   15.5250   23.2510 H       1  UNL1        0.0370
     93 C         -30.4690   15.5710   21.9300 C.3     1  UNL1       -0.0590
     94 H         -30.6920   16.6330   22.0280 H       1  UNL1        0.0380
     95 C         -28.9720   15.3600   22.3260 C.3     1  UNL1       -0.0730
     96 H         -28.3300   15.8080   21.5690 H       1  UNL1        0.0280
     97 H         -28.7810   15.8330   23.2890 H       1  UNL1        0.0280
     98 H         -28.7620   14.2930   22.3970 H       1  UNL1        0.0280
     99 C         -30.7040   15.1910   20.4660 C.3     1  UNL1       -0.0730
    100 H         -30.9250   14.1250   20.3980 H       1  UNL1        0.0280
    101 H         -31.5450   15.7610   20.0720 H       1  UNL1        0.0280
    102 H         -29.8100   15.4140   19.8850 H       1  UNL1        0.0280
@<TRIPOS>BOND
     1   102    99    1
     2   101    99    1
     3   100    99    1
     4    99    93    1
     5    42    39    1
     6    34    33    1
     7    96    95    1
     8    38    35    1
     9    93    94    1
    10    93    95    1
    11    93    90    1
    12    40    39    1
    13    39    33    1
    14    39    41    1
    15    91    90    1
    16    95    98    1
    17    95    97    1
    18    33    35    1
    19    33     7    1
    20    36    35    1
    21    35    37    1
    22     5     4    2
    23    90    92    1
    24    90     1    1
    25    12     9    1
    26     4     7    1
    27     4     3   am
    28     7     9    1
    29     7     8    1
    30     9    10   am
    31     2     1    1
    32     1     3    1
    33     1    43    1
    34     3     6    1
    35    81    77    1
    36    14    13    1
    37    32    29    1
    38    82    77    1
    39    79    76    1
    40    78    76    1
    41    77    76    1
    42    77    80    1
    43    10    13    1
    44    10    11    2
    45    76    75    1
    46    43    44    2
    47    43    45   am
    48    13    29    1
    49    13    15    1
    50    17    16    2
    51    29    31    1
    52    29    30    1
    53    84    80    1
    54    80    85    1
    55    80    83    1
    56    74    72    1
    57    46    45    1
    58    45    47    1
    59    16    15   am
    60    16    19    1
    61    15    18    1
    62    75    72    1
    63    75    87    1
    64    75    83    1
    65    72    47    1
    66    72    73    1
    67    83    86    1
    68    83    88    1
    69    47    48    1
    70    47    49    1
    71    19    20   ar
    72    19    24   ar
    73    54    52    1
    74    22    20    1
    75    53    52    1
    76    88    89    1
    77    20    21   ar
    78    51    49    1
    79    24    23   ar
    80    52    49    1
    81    52    55    1
    82    49    50    1
    83    59    58    1
    84    71    69    1
    85    60    58    1
    86    58    61    1
    87    58    57    1
    88    21    23   ar
    89    21    25    1
    90    69    61   ar
    91    69    67   ar
    92    55    57    1
    93    55    56    2
    94    70    67    1
    95    61    62   ar
    96    27    25    1
    97    26    25    1
    98    25    28    1
    99    67    65   ar
   100    62    64    1
   101    62    63   ar
   102    65    63   ar
   103    65    68    1
   104    63    66    1
@<TRIPOS>MOLECULE
crystal_redock_e24_er3_1.pdbqt
 102 104 0 0 0
SMALL
GASTEIGER

@<TRIPOS>ATOM
      1 C         -33.9750    7.2500   25.2750 C.3     1  UNL1        0.0890
      2 H         -33.0580    6.7190   25.5330 H       1  UNL1        0.0870
      3 N         -34.7690    7.3680   26.4890 N.am    1  UNL1       -0.3460
      4 C         -34.1110    7.7270   27.7980 C.2     1  UNL1        0.2410
      5 O         -32.9400    7.9140   27.8490 O.2     1  UNL1       -0.2710
      6 H         -35.7630    7.2020   26.4240 H       1  UNL1        0.1630
      7 C         -34.9490    7.8500   29.0430 C.3     1  UNL1        0.0920
      8 H         -34.6550    7.0740   29.7510 H       1  UNL1        0.0880
      9 N         -34.6870    9.1420   29.6840 N.am    1  UNL1       -0.3460
     10 C         -34.4590    9.2080   31.1070 C.2     1  UNL1        0.2400
     11 O         -34.4860    8.2310   31.7510 O.2     1  UNL1       -0.2710
     12 H         -34.6630    9.9930   29.1410 H       1  UNL1        0.1630
     13 C         -34.1840   10.5870   31.7830 C.3     1  UNL1        0.0860
     14 H         -33.3530   10.5520   32.4870 H       1  UNL1        0.0860
     15 N         -33.8210   11.5510   30.7580 N.am    1  UNL1       -0.3430
     16 C         -32.4150   11.9210   30.5810 C.2     1  UNL1        0.2730
     17 O         -31.5840   11.4400   31.2710 O.2     1  UNL1       -0.2660
     18 H         -34.5380   11.9590   30.1740 H       1  UNL1        0.1630
     19 C         -32.0170   12.9380   29.5000 C.ar    1  UNL1        0.1540
     20 C         -32.7370   14.1110   29.1080 C.ar    1  UNL1       -0.0170
     21 C         -31.9550   14.6940   28.0870 C.ar    1  UNL1        0.0770
     22 H         -33.6830   14.4820   29.5050 H       1  UNL1        0.0910
     23 O         -30.9090   13.9380   27.9210 O.2     1  UNL1       -0.2180
     24 N         -30.9230   12.9070   28.7330 N.ar    1  UNL1       -0.1230
     25 C         -32.2760   15.9720   27.3240 C.3     1  UNL1       -0.0290
     26 H         -31.3520   16.4170   26.9550 H       1  UNL1        0.0360
     27 H         -32.9280   15.7380   26.4820 H       1  UNL1        0.0360
     28 H         -32.7780   16.6750   27.9880 H       1  UNL1        0.0360
     29 C         -35.4200   11.0480   32.5120 C.3     1  UNL1       -0.0490
     30 H         -35.9130   11.8300   31.9320 H       1  UNL1        0.0300
     31 H         -36.1020   10.2080   32.6390 H       1  UNL1        0.0300
     32 H         -35.1410   11.4420   33.4890 H       1  UNL1        0.0300
     33 C         -36.4560    7.7580   28.6650 C.3     1  UNL1       -0.0330
     34 H         -36.5200    7.3150   27.6710 H       1  UNL1        0.0420
     35 C         -37.2320    6.8230   29.6450 C.3     1  UNL1       -0.0710
     36 H         -38.3030    6.9960   29.5410 H       1  UNL1        0.0280
     37 H         -37.0070    5.7830   29.4090 H       1  UNL1        0.0280
     38 H         -36.9280    7.0370   30.6690 H       1  UNL1        0.0280
     39 C         -37.1050    9.1780   28.6040 C.3     1  UNL1       -0.0710
     40 H         -38.1870    9.0790   28.5140 H       1  UNL1        0.0280
     41 H         -36.8650    9.7270   29.5160 H       1  UNL1        0.0280
     42 H         -36.7160    9.7190   27.7420 H       1  UNL1        0.0280
     43 C         -33.6920    8.6790   24.7280 C.2     1  UNL1        0.2400
     44 O         -34.4000    9.1430   23.8930 O.2     1  UNL1       -0.2710
     45 N         -32.5440    9.4720   25.2510 N.am    1  UNL1       -0.3550
     46 H         -31.9390    9.0910   25.9640 H       1  UNL1        0.1620
     47 C         -32.2890   10.8300   24.7220 C.3     1  UNL1        0.0130
     48 H         -32.8520   10.9390   23.7950 H       1  UNL1        0.0720
     49 C         -30.8110   10.9910   24.4510 C.3     1  UNL1       -0.0380
     50 H         -30.5930   12.0450   24.6240 H       1  UNL1        0.0360
     51 H         -30.3170   10.2260   25.0510 H       1  UNL1        0.0360
     52 C         -30.4360   10.7030   22.9810 C.3     1  UNL1        0.0180
     53 H         -31.3530   10.8420   22.4100 H       1  UNL1        0.0480
     54 H         -29.5640   11.3240   22.7720 H       1  UNL1        0.0480
     55 C         -29.9890    9.2370   22.7240 C.2     1  UNL1        0.2590
     56 O         -29.0090    9.0070   22.0930 O.2     1  UNL1       -0.2650
     57 O         -30.7740    8.1690   23.2420 O.3     1  UNL1       -0.3170
     58 C         -30.4720    6.8940   22.6690 C.3     1  UNL1        0.0520
     59 H         -29.5600    7.0400   22.0890 H       1  UNL1        0.0820
     60 H         -30.4830    6.1870   23.4980 H       1  UNL1        0.0820
     61 C         -31.6210    6.5240   21.6930 C.ar    1  UNL1       -0.0340
     62 C         -31.7030    5.2380   21.1690 C.ar    1  UNL1       -0.0750
     63 C         -32.7340    4.9050   20.2930 C.ar    1  UNL1       -0.0820
     64 H         -30.9590    4.4900   21.4460 H       1  UNL1        0.0840
     65 C         -33.6850    5.8660   19.9370 C.ar    1  UNL1       -0.0830
     66 H         -32.7970    3.8960   19.8850 H       1  UNL1        0.0830
     67 C         -33.5970    7.1490   20.4600 C.ar    1  UNL1       -0.0820
     68 H         -34.4950    5.6140   19.2530 H       1  UNL1        0.0830
     69 C         -32.5690    7.4850   21.3380 C.ar    1  UNL1       -0.0750
     70 H         -34.3390    7.8970   20.1790 H       1  UNL1        0.0830
     71 H         -32.5070    8.4950   21.7450 H       1  UNL1        0.0840
     72 C         -32.7390   11.8740   25.7410 C.3     1  UNL1       -0.0390
     73 H         -32.4770   11.4600   26.7160 H       1  UNL1        0.0360
     74 H         -32.2930   12.8120   25.4110 H       1  UNL1        0.0360
     75 C         -34.3280   12.0740   25.7240 C.3     1  UNL1       -0.0010
     76 C         -34.6900   13.6780   25.6820 C.3     1  UNL1       -0.0350
     77 C         -35.5760   13.9510   26.6700 C.3     1  UNL1        0.0850
     78 H         -33.8140   14.2660   25.9550 H       1  UNL1        0.0360
     79 H         -35.2430   13.9130   24.7720 H       1  UNL1        0.0360
     80 N         -35.6000   12.7510   27.5850 N.4     1  UNL1       -0.0490
     81 H         -35.1570   14.8010   27.2090 H       1  UNL1        0.0750
     82 H         -36.5430   14.0410   26.1770 H       1  UNL1        0.0750
     83 C         -34.8750   11.5590   26.7740 C.3     1  UNL1        0.1930
     84 H         -35.0310   12.9890   28.3850 H       1  UNL1        0.2800
     85 H         -36.5730   12.5090   27.7120 H       1  UNL1        0.2800
     86 H         -35.4630   10.7610   26.3190 H       1  UNL1        0.1290
     87 H         -34.8160   11.4360   24.9880 H       1  UNL1        0.0460
     88 O         -33.9220   10.9010   27.6110 O.3     1  UNL1       -0.3690
     89 H         -34.3810   10.3290   28.2310 H       1  UNL1        0.2120
     90 C         -34.7590    6.4540   24.2450 C.3     1  UNL1       -0.0350
     91 H         -35.8080    6.6080   24.4980 H       1  UNL1        0.0370
     92 H         -34.3780    6.7810   23.2770 H       1  UNL1        0.0370
     93 C         -34.5090    4.9140   24.3200 C.3     1  UNL1       -0.0590
     94 H         -35.0590    4.5320   25.1800 H       1  UNL1        0.0380
     95 C         -35.0330    4.1690   23.0510 C.3     1  UNL1       -0.0730
     96 H         -34.6240    3.1600   23.0270 H       1  UNL1        0.0280
     97 H         -36.1210    4.1180   23.0820 H       1  UNL1        0.0280
     98 H         -34.7210    4.7090   22.1580 H       1  UNL1        0.0280
     99 C         -33.0270    4.6110   24.5560 C.3     1  UNL1       -0.0730
    100 H         -32.9240    3.6170   24.9910 H       1  UNL1        0.0280
    101 H         -32.4920    4.6500   23.6070 H       1  UNL1        0.0280
    102 H         -32.6090    5.3520   25.2380 H       1  UNL1        0.0280
@<TRIPOS>BOND
     1    68    65    1
     2    66    63    1
     3    65    63   ar
     4    65    67   ar
     5    70    67    1
     6    63    62   ar
     7    67    69   ar
     8    62    64    1
     9    62    61   ar
    10    69    61   ar
    11    69    71    1
    12    61    58    1
    13    59    58    1
    14    56    55    2
    15    98    95    1
    16    53    52    1
    17    58    57    1
    18    58    60    1
    19    55    52    1
    20    55    57    1
    21    54    52    1
    22    52    49    1
    23    96    95    1
    24    95    97    1
    25    95    93    1
    26    92    90    1
    27   101    99    1
    28    48    47    1
    29    44    43    2
    30    90    93    1
    31    90    91    1
    32    90     1    1
    33    93    99    1
    34    93    94    1
    35    49    50    1
    36    49    47    1
    37    49    51    1
    38    99   100    1
    39    99   102    1
    40    47    45    1
    41    47    72    1
    42    43    45   am
    43    43     1    1
    44    79    76    1
    45    87    75    1
    46    45    46    1
    47     1     2    1
    48     1     3    1
    49    74    72    1
    50    76    75    1
    51    76    78    1
    52    76    77    1
    53    75    72    1
    54    75    83    1
    55    72    73    1
    56    82    77    1
    57    86    83    1
    58     6     3    1
    59    27    25    1
    60     3     4   am
    61    77    81    1
    62    77    80    1
    63    83    80    1
    64    83    88    1
    65    26    25    1
    66    25    28    1
    67    25    21    1
    68    80    85    1
    69    80    84    1
    70    88    89    1
    71    34    33    1
    72    42    39    1
    73     4     5    2
    74     4     7    1
    75    23    21   ar
    76    23    24   ar
    77    21    20   ar
    78    40    39    1
    79    39    33    1
    80    39    41    1
    81    33     7    1
    82    33    35    1
    83    24    19   ar
    84     7     9    1
    85     7     8    1
    86    20    19   ar
    87    20    22    1
    88    12     9    1
    89    37    35    1
    90    19    16    1
    91    36    35    1
    92    35    38    1
    93     9    10   am
    94    18    15    1
    95    16    15   am
    96    16    17    2
    97    15    13    1
    98    10    11    2
    99    10    13    1
   100    13    14    1
   101    13    29    1
   102    30    29    1
   103    29    31    1
   104    29    32    1
@<TRIPOS>MOLECULE
crystal_redock_e24_er3_1.pdbqt
 102 104 0 0 0
SMALL
GASTEIGER

@<TRIPOS>ATOM
      1 C         -32.1750    8.9160   24.6780 C.3     1  UNL1        0.0890
      2 H         -31.1760    8.4960   24.7970 H       1  UNL1        0.0870
      3 N         -33.1140    7.8060   24.6270 N.am    1  UNL1       -0.3460
      4 C         -32.6230    6.3860   24.7560 C.2     1  UNL1        0.2410
      5 O         -31.4660    6.1620   24.8970 O.2     1  UNL1       -0.2710
      6 H         -34.0940    8.0180   24.5040 H       1  UNL1        0.1630
      7 C         -33.6100    5.2490   24.7070 C.3     1  UNL1        0.0920
      8 H         -33.0760    4.3060   24.8200 H       1  UNL1        0.0880
      9 N         -34.5390    5.3590   25.8350 N.am    1  UNL1       -0.3460
     10 C         -34.3440    4.5460   27.0110 C.2     1  UNL1        0.2400
     11 O         -33.4450    3.7980   27.0640 O.2     1  UNL1       -0.2710
     12 H         -35.3190    5.9990   25.8030 H       1  UNL1        0.1630
     13 C         -35.3380    4.6650   28.2080 C.3     1  UNL1        0.0860
     14 H         -35.0200    4.0910   29.0780 H       1  UNL1        0.0860
     15 N         -35.4050    6.0550   28.6280 N.am    1  UNL1       -0.3430
     16 C         -35.1930    6.3940   30.0370 C.2     1  UNL1        0.2730
     17 O         -34.9710    5.5410   30.8250 O.2     1  UNL1       -0.2660
     18 H         -35.5970    6.7770   27.9480 H       1  UNL1        0.1630
     19 C         -35.2600    7.8590   30.4950 C.ar    1  UNL1        0.1540
     20 C         -35.1540    8.3520   31.8340 C.ar    1  UNL1       -0.0170
     21 C         -35.2780    9.7540   31.7160 C.ar    1  UNL1        0.0770
     22 H         -35.0100    7.7800   32.7510 H       1  UNL1        0.0910
     23 O         -35.4340   10.0240   30.4540 O.2     1  UNL1       -0.2180
     24 N         -35.4270    8.9350   29.7210 N.ar    1  UNL1       -0.1230
     25 C         -35.2340   10.7620   32.8570 C.3     1  UNL1       -0.0290
     26 H         -35.7090   10.3340   33.7390 H       1  UNL1        0.0360
     27 H         -34.1970   11.0070   33.0860 H       1  UNL1        0.0360
     28 H         -35.7640   11.6680   32.5630 H       1  UNL1        0.0360
     29 C         -36.7020    4.1880   27.7810 C.3     1  UNL1       -0.0490
     30 H         -36.6240    3.6720   26.8240 H       1  UNL1        0.0300
     31 H         -37.0990    3.5040   28.5300 H       1  UNL1        0.0300
     32 H         -37.3710    5.0430   27.6780 H       1  UNL1        0.0300
     33 C         -34.4090    5.3140   23.3720 C.3     1  UNL1       -0.0330
     34 H         -34.7970    6.3270   23.2700 H       1  UNL1        0.0420
     35 C         -33.4870    5.0390   22.1440 C.3     1  UNL1       -0.0710
     36 H         -32.5540    5.5910   22.2580 H       1  UNL1        0.0280
     37 H         -33.2730    3.9720   22.0820 H       1  UNL1        0.0280
     38 H         -33.9900    5.3620   21.2320 H       1  UNL1        0.0280
     39 C         -35.6240    4.3320   23.4000 C.3     1  UNL1       -0.0710
     40 H         -35.2600    3.3050   23.4480 H       1  UNL1        0.0280
     41 H         -36.2400    4.5400   24.2760 H       1  UNL1        0.0280
     42 H         -36.2200    4.4660   22.4980 H       1  UNL1        0.0280
     43 C         -32.5670    9.8430   25.8640 C.2     1  UNL1        0.2400
     44 O         -32.9320    9.3680   26.8900 O.2     1  UNL1       -0.2710
     45 N         -32.4790   11.3250   25.7230 N.am    1  UNL1       -0.3550
     46 H         -32.1660   11.7400   24.8580 H       1  UNL1        0.1620
     47 C         -32.8540   12.1920   26.8610 C.3     1  UNL1        0.0130
     48 H         -33.3510   11.5720   27.6060 H       1  UNL1        0.0720
     49 C         -33.7960   13.2720   26.3760 C.3     1  UNL1       -0.0380
     50 H         -33.4750   13.5090   25.3620 H       1  UNL1        0.0360
     51 H         -34.8000   12.8880   26.5550 H       1  UNL1        0.0360
     52 C         -33.6770   14.5790   27.1890 C.3     1  UNL1        0.0180
     53 H         -34.6840   14.8010   27.5410 H       1  UNL1        0.0480
     54 H         -32.8740   14.4090   27.9070 H       1  UNL1        0.0480
     55 C         -33.2410   15.8070   26.3410 C.2     1  UNL1        0.2590
     56 O         -33.9530   16.7530   26.2390 O.2     1  UNL1       -0.2650
     57 O         -31.9840   15.7830   25.6760 O.3     1  UNL1       -0.3170
     58 C         -32.0230   16.2940   24.3400 C.3     1  UNL1        0.0520
     59 H         -33.0650   16.2250   24.0280 H       1  UNL1        0.0820
     60 H         -31.5300   17.2640   24.3820 H       1  UNL1        0.0820
     61 C         -31.1780   15.3520   23.4420 C.ar    1  UNL1       -0.0340
     62 C         -30.9530   14.0350   23.8310 C.ar    1  UNL1       -0.0750
     63 C         -30.1930   13.1890   23.0250 C.ar    1  UNL1       -0.0820
     64 H         -31.3700   13.6660   24.7690 H       1  UNL1        0.0840
     65 C         -29.6560   13.6640   21.8260 C.ar    1  UNL1       -0.0830
     66 H         -30.0200   12.1570   23.3320 H       1  UNL1        0.0830
     67 C         -29.8800   14.9800   21.4430 C.ar    1  UNL1       -0.0820
     68 H         -29.0610   13.0090   21.1890 H       1  UNL1        0.0830
     69 C         -30.6410   15.8280   22.2450 C.ar    1  UNL1       -0.0750
     70 H         -29.4580   15.3480   20.5080 H       1  UNL1        0.0830
     71 H         -30.8140   16.8600   21.9370 H       1  UNL1        0.0840
     72 C         -31.6030   12.8360   27.4550 C.3     1  UNL1       -0.0390
     73 H         -30.8210   12.6920   26.7080 H       1  UNL1        0.0360
     74 H         -31.9030   13.8430   27.7420 H       1  UNL1        0.0360
     75 C         -31.1270   12.0860   28.7880 C.3     1  UNL1       -0.0010
     76 C         -32.4300   11.4680   29.5780 C.3     1  UNL1       -0.0350
     77 C         -32.3860   11.8680   30.8720 C.3     1  UNL1        0.0850
     78 H         -33.3460   11.9230   29.2020 H       1  UNL1        0.0360
     79 H         -32.3470   10.3830   29.6440 H       1  UNL1        0.0360
     80 N         -31.3540   12.9670   30.9590 N.4     1  UNL1       -0.0490
     81 H         -33.3700   12.2870   31.0800 H       1  UNL1        0.0750
     82 H         -32.0310   11.0040   31.4320 H       1  UNL1        0.0750
     83 C         -30.5110   12.8940   29.5840 C.3     1  UNL1        0.1930
     84 H         -31.8650   13.8380   30.9770 H       1  UNL1        0.2800
     85 H         -30.7420   12.7240   31.7250 H       1  UNL1        0.2800
     86 H         -29.5100   12.4620   29.5710 H       1  UNL1        0.1290
     87 H         -30.2910   11.4100   28.6060 H       1  UNL1        0.0460
     88 O         -30.3700   14.2010   29.0230 O.3     1  UNL1       -0.3690
     89 H         -30.3890   14.8550   29.7260 H       1  UNL1        0.2120
     90 C         -32.2550    9.6940   23.3740 C.3     1  UNL1       -0.0350
     91 H         -33.1550    9.3330   22.8770 H       1  UNL1        0.0370
     92 H         -32.1720   10.7430   23.6580 H       1  UNL1        0.0370
     93 C         -31.0690    9.4050   22.3990 C.3     1  UNL1       -0.0590
     94 H         -31.1050   10.1500   21.6040 H       1  UNL1        0.0380
     95 C         -29.6810    9.5300   23.1060 C.3     1  UNL1       -0.0730
     96 H         -29.7480   10.2600   23.9120 H       1  UNL1        0.0280
     97 H         -29.3940    8.5620   23.5160 H       1  UNL1        0.0280
     98 H         -28.9330    9.8540   22.3830 H       1  UNL1        0.0280
     99 C         -31.2230    8.0310   21.7410 C.3     1  UNL1       -0.0730
    100 H         -32.1930    7.6080   22.0070 H       1  UNL1        0.0280
    101 H         -31.1580    8.1370   20.6580 H       1  UNL1        0.0280
    102 H         -30.4300    7.3700   22.0900 H       1  UNL1        0.0280
@<TRIPOS>BOND
     1    70    67    1
     2   101    99    1
     3    68    65    1
     4    38    35    1
     5    67    65   ar
     6    67    69   ar
     7    94    93    1
     8    99   100    1
     9    99   102    1
    10    99    93    1
    11    65    63   ar
    12    71    69    1
    13    37    35    1
    14    35    36    1
    15    35    33    1
    16    69    61   ar
    17    98    95    1
    18    93    95    1
    19    93    90    1
    20    42    39    1
    21    91    90    1
    22    63    66    1
    23    63    62   ar
    24    95    97    1
    25    95    96    1
    26    34    33    1
    27    33    39    1
    28    33     7    1
    29    90    92    1
    30    90     1    1
    31    39    40    1
    32    39    41    1
    33    61    62   ar
    34    61    58    1
    35    62    64    1
    36    59    58    1
    37    58    60    1
    38    58    57    1
    39     6     3    1
    40     3     1    1
    41     3     4   am
    42     1     2    1
    43     1    43    1
    44     7     4    1
    45     7     8    1
    46     7     9    1
    47     4     5    2
    48    46    45    1
    49    50    49    1
    50    57    55    1
    51    45    43   am
    52    45    47    1
    53    12     9    1
    54     9    10   am
    55    43    44    2
    56    56    55    2
    57    55    52    1
    58    49    51    1
    59    49    47    1
    60    49    52    1
    61    73    72    1
    62    30    29    1
    63    47    72    1
    64    47    48    1
    65    10    11    2
    66    10    13    1
    67    52    53    1
    68    52    54    1
    69    72    74    1
    70    72    75    1
    71    32    29    1
    72    29    13    1
    73    29    31    1
    74    18    15    1
    75    13    15    1
    76    13    14    1
    77    87    75    1
    78    15    16   am
    79    75    76    1
    80    75    83    1
    81    88    83    1
    82    88    89    1
    83    78    76    1
    84    86    83    1
    85    76    79    1
    86    76    77    1
    87    83    80    1
    88    24    23   ar
    89    24    19   ar
    90    16    19    1
    91    16    17    2
    92    23    21   ar
    93    19    20   ar
    94    77    80    1
    95    77    81    1
    96    77    82    1
    97    80    84    1
    98    80    85    1
    99    21    20   ar
   100    21    25    1
   101    20    22    1
   102    28    25    1
   103    25    27    1
   104    25    26    1
@<TRIPOS>MOLECULE
crystal_redock_e24_er3_1.pdbqt
 102 104 0 0 0
SMALL
GASTEIGER

@<TRIPOS>ATOM
      1 C         -33.9820    6.8400   27.8120 C.3     1  UNL1        0.0890
      2 H         -33.0320    6.4690   27.4260 H       1  UNL1        0.0870
      3 N         -33.6900    7.9670   28.6860 N.am    1  UNL1       -0.3460
      4 C         -32.9970    9.1910   28.1440 C.2     1  UNL1        0.2410
      5 O         -32.6810    9.2460   27.0020 O.2     1  UNL1       -0.2710
      6 H         -33.9650    7.8990   29.6560 H       1  UNL1        0.1630
      7 C         -32.7080   10.3500   29.0620 C.3     1  UNL1        0.0920
      8 H         -31.6520   10.3400   29.3300 H       1  UNL1        0.0880
      9 N         -32.9630   11.6090   28.3550 N.am    1  UNL1       -0.3460
     10 C         -31.8680   12.4940   28.0410 C.2     1  UNL1        0.2400
     11 O         -30.7760   12.2090   28.3500 O.2     1  UNL1       -0.2710
     12 H         -33.9010   11.8690   28.0830 H       1  UNL1        0.1630
     13 C         -32.1470   13.8340   27.2910 C.3     1  UNL1        0.0860
     14 H         -31.5710   14.6680   27.6910 H       1  UNL1        0.0860
     15 N         -31.7530   13.6860   25.9000 N.am    1  UNL1       -0.3430
     16 C         -31.3030   14.8600   25.1490 C.2     1  UNL1        0.2730
     17 O         -31.2640   15.9190   25.6720 O.2     1  UNL1       -0.2660
     18 H         -31.7920   12.7770   25.4590 H       1  UNL1        0.1630
     19 C         -30.8820   14.7180   23.6780 C.ar    1  UNL1        0.1540
     20 C         -31.2640   15.5590   22.5840 C.ar    1  UNL1       -0.0170
     21 C         -30.6150   15.0070   21.4570 C.ar    1  UNL1        0.0770
     22 H         -31.9120   16.4360   22.6050 H       1  UNL1        0.0910
     23 O         -29.9420   13.9710   21.8670 O.2     1  UNL1       -0.2180
     24 N         -30.0820   13.7830   23.1590 N.ar    1  UNL1       -0.1230
     25 C         -30.6900   15.5280   20.0280 C.3     1  UNL1       -0.0290
     26 H         -31.0170   16.5670   20.0370 H       1  UNL1        0.0360
     27 H         -29.7060   15.4620   19.5660 H       1  UNL1        0.0360
     28 H         -31.4000   14.9280   19.4590 H       1  UNL1        0.0360
     29 C         -33.6150   14.1670   27.3800 C.3     1  UNL1       -0.0490
     30 H         -34.1060   13.4670   28.0560 H       1  UNL1        0.0300
     31 H         -33.7340   15.1820   27.7580 H       1  UNL1        0.0300
     32 H         -34.0650   14.0920   26.3900 H       1  UNL1        0.0300
     33 C         -33.6310   10.2640   30.3120 C.3     1  UNL1       -0.0330
     34 H         -33.4260    9.3150   30.8070 H       1  UNL1        0.0420
     35 C         -33.3150   11.4030   31.3320 C.3     1  UNL1       -0.0710
     36 H         -32.2490   11.4000   31.5610 H       1  UNL1        0.0280
     37 H         -33.5910   12.3640   30.9000 H       1  UNL1        0.0280
     38 H         -33.8830   11.2390   32.2470 H       1  UNL1        0.0280
     39 C         -35.1380   10.2780   29.8970 C.3     1  UNL1       -0.0710
     40 H         -35.6860   10.9650   30.5430 H       1  UNL1        0.0280
     41 H         -35.2260   10.6040   28.8610 H       1  UNL1        0.0280
     42 H         -35.5510    9.2750   29.9990 H       1  UNL1        0.0280
     43 C         -34.9270    7.3260   26.6760 C.2     1  UNL1        0.2400
     44 O         -36.0810    7.5000   26.9020 O.2     1  UNL1       -0.2710
     45 N         -34.3920    7.5820   25.3090 N.am    1  UNL1       -0.3550
     46 H         -33.4130    7.4420   25.1060 H       1  UNL1        0.1620
     47 C         -35.3040    8.0450   24.2400 C.3     1  UNL1        0.0130
     48 H         -36.3270    7.8830   24.5790 H       1  UNL1        0.0720
     49 C         -35.0440    7.2480   22.9820 C.3     1  UNL1       -0.0380
     50 H         -36.0200    6.8940   22.6510 H       1  UNL1        0.0360
     51 H         -34.4530    7.9000   22.3380 H       1  UNL1        0.0360
     52 C         -34.1860    5.9900   23.2360 C.3     1  UNL1        0.0180
     53 H         -33.5880    6.2140   24.1180 H       1  UNL1        0.0480
     54 H         -34.8840    5.1530   23.2480 H       1  UNL1        0.0480
     55 C         -33.1720    5.6840   22.0990 C.2     1  UNL1        0.2590
     56 O         -33.5540    5.4180   21.0050 O.2     1  UNL1       -0.2650
     57 O         -31.7780    5.7130   22.3810 O.3     1  UNL1       -0.3170
     58 C         -31.4400    6.4310   23.5710 C.3     1  UNL1        0.0520
     59 H         -32.3800    6.5800   24.1030 H       1  UNL1        0.0820
     60 H         -30.6330    5.8670   24.0380 H       1  UNL1        0.0820
     61 C         -30.8880    7.8200   23.1520 C.ar    1  UNL1       -0.0340
     62 C         -31.5600    8.9790   23.5270 C.ar    1  UNL1       -0.0750
     63 C         -31.0650   10.2260   23.1510 C.ar    1  UNL1       -0.0820
     64 H         -32.4750    8.9100   24.1160 H       1  UNL1        0.0840
     65 C         -29.8940   10.3120   22.3930 C.ar    1  UNL1       -0.0830
     66 H         -31.5930   11.1330   23.4480 H       1  UNL1        0.0830
     67 C         -29.2290    9.1530   22.0180 C.ar    1  UNL1       -0.0820
     68 H         -29.4990   11.2840   22.0950 H       1  UNL1        0.0830
     69 C         -29.7190    7.9040   22.3940 C.ar    1  UNL1       -0.0750
     70 H         -28.3160    9.2230   21.4250 H       1  UNL1        0.0830
     71 H         -29.1900    6.9980   22.0970 H       1  UNL1        0.0840
     72 C         -35.0650    9.5280   23.9640 C.3     1  UNL1       -0.0390
     73 H         -34.0250    9.7100   24.2380 H       1  UNL1        0.0360
     74 H         -35.3930    9.6880   22.9370 H       1  UNL1        0.0360
     75 C         -35.9700   10.4590   24.9010 C.3     1  UNL1       -0.0010
     76 C         -37.1130   11.2210   23.9960 C.3     1  UNL1       -0.0350
     77 C         -37.0680   12.5480   24.2630 C.3     1  UNL1        0.0850
     78 H         -36.8520   11.1650   22.9390 H       1  UNL1        0.0360
     79 H         -38.1090   10.9290   24.3280 H       1  UNL1        0.0360
     80 N         -35.7860   12.8030   25.0180 N.4     1  UNL1       -0.0490
     81 H         -37.0120   13.0390   23.2910 H       1  UNL1        0.0750
     82 H         -37.9130   12.7420   24.9230 H       1  UNL1        0.0750
     83 C         -35.2580   11.3550   25.4980 C.3     1  UNL1        0.1930
     84 H         -35.1290   13.1790   24.3490 H       1  UNL1        0.2800
     85 H         -36.0380   13.3410   25.8350 H       1  UNL1        0.2800
     86 H         -35.3730   11.0400   26.5360 H       1  UNL1        0.1290
     87 H         -36.3120    9.9380   25.7950 H       1  UNL1        0.0460
     88 O         -33.8660   11.2170   25.2100 O.3     1  UNL1       -0.3690
     89 H         -33.3860   11.9600   25.5840 H       1  UNL1        0.2120
     90 C         -34.6700    5.7510   28.6190 C.3     1  UNL1       -0.0350
     91 H         -35.5930    5.5340   28.0830 H       1  UNL1        0.0370
     92 H         -33.9190    4.9710   28.7500 H       1  UNL1        0.0370
     93 C         -35.0890    6.2050   30.0540 C.3     1  UNL1       -0.0590
     94 H         -34.7140    7.2170   30.2030 H       1  UNL1        0.0380
     95 C         -36.6410    6.2400   30.2310 C.3     1  UNL1       -0.0730
     96 H         -37.0520    5.2510   30.0320 H       1  UNL1        0.0280
     97 H         -36.8840    6.5360   31.2510 H       1  UNL1        0.0280
     98 H         -37.0700    6.9590   29.5320 H       1  UNL1        0.0280
     99 C         -34.4400    5.3180   31.1200 C.3     1  UNL1       -0.0730
    100 H         -34.9690    5.4400   32.0650 H       1  UNL1        0.0280
    101 H         -34.4920    4.2750   30.8060 H       1  UNL1        0.0280
    102 H         -33.3970    5.6060   31.2460 H       1  UNL1        0.0280
@<TRIPOS>BOND
     1    28    25    1
     2    27    25    1
     3    25    26    1
     4    25    21    1
     5    56    55    2
     6    70    67    1
     7    21    23   ar
     8    21    20   ar
     9    23    24   ar
    10    67    65   ar
    11    67    69   ar
    12    68    65    1
    13    71    69    1
    14    55    57    1
    15    55    52    1
    16    51    49    1
    17    57    58    1
    18    65    63   ar
    19    69    61   ar
    20    20    22    1
    21    20    19   ar
    22    50    49    1
    23    74    72    1
    24    78    76    1
    25    49    52    1
    26    49    47    1
    27    63    66    1
    28    63    62   ar
    29    61    62   ar
    30    61    58    1
    31    24    19   ar
    32    52    54    1
    33    52    53    1
    34    81    77    1
    35    62    64    1
    36    58    60    1
    37    58    59    1
    38    19    16    1
    39    72    73    1
    40    72    47    1
    41    72    75    1
    42    76    77    1
    43    76    79    1
    44    76    75    1
    45    47    48    1
    46    47    45    1
    47    77    82    1
    48    77    80    1
    49    84    80    1
    50    75    83    1
    51    75    87    1
    52    80    83    1
    53    80    85    1
    54    46    45    1
    55    16    17    2
    56    16    15   am
    57    88    83    1
    58    88    89    1
    59    45    43   am
    60    18    15    1
    61    83    86    1
    62    15    13    1
    63    32    29    1
    64    43    44    2
    65    43     1    1
    66     5     4    2
    67    13    29    1
    68    13    14    1
    69    13    10    1
    70    29    31    1
    71    29    30    1
    72     2     1    1
    73     1    90    1
    74     1     3    1
    75    10    11    2
    76    10     9   am
    77    91    90    1
    78    12     9    1
    79     4     3   am
    80     4     7    1
    81     9     7    1
    82    90    92    1
    83    90    93    1
    84     3     6    1
    85    41    39    1
    86     7     8    1
    87     7    33    1
    88    98    95    1
    89    39    42    1
    90    39    33    1
    91    39    40    1
    92    96    95    1
    93    93    94    1
    94    93    95    1
    95    93    99    1
    96    95    97    1
    97    33    34    1
    98    33    35    1
    99   101    99    1
   100    37    35    1
   101    99   102    1
   102    99   100    1
   103    35    36    1
   104    35    38    1
@<TRIPOS>MOLECULE
crystal_redock_e24_er3_1.pdbqt
 102 104 0 0 0
SMALL
GASTEIGER

@<TRIPOS>ATOM
      1 C         -33.7460    7.2240   27.6100 C.3     1  UNL1        0.0890
      2 H         -33.1720    6.7520   28.4080 H       1  UNL1        0.0870
      3 N         -34.2190    8.5070   28.1100 N.am    1  UNL1       -0.3460
      4 C         -34.7430    8.6290   29.5180 C.2     1  UNL1        0.2410
      5 O         -34.7780    7.6800   30.2300 O.2     1  UNL1       -0.2710
      6 H         -34.1830    9.3010   27.4870 H       1  UNL1        0.1630
      7 C         -35.2230    9.9660   30.0200 C.3     1  UNL1        0.0920
      8 H         -35.2180    9.9620   31.1100 H       1  UNL1        0.0880
      9 N         -34.2950   11.0140   29.5860 N.am    1  UNL1       -0.3460
     10 C         -33.1300   11.3180   30.3790 C.2     1  UNL1        0.2400
     11 O         -32.9250   10.7310   31.3710 O.2     1  UNL1       -0.2710
     12 H         -34.4600   11.5300   28.7330 H       1  UNL1        0.1630
     13 C         -32.1470   12.4370   29.9130 C.3     1  UNL1        0.0860
     14 H         -31.6270   12.1830   28.9890 H       1  UNL1        0.0860
     15 N         -32.9040   13.6480   29.6450 N.am    1  UNL1       -0.3430
     16 C         -32.3100   14.7020   28.8200 C.2     1  UNL1        0.2730
     17 O         -31.2220   14.5670   28.3790 O.2     1  UNL1       -0.2660
     18 H         -33.8320   13.7560   30.0290 H       1  UNL1        0.1630
     19 C         -33.1000   15.9870   28.5280 C.ar    1  UNL1        0.1540
     20 C         -34.4220   16.0860   27.9890 C.ar    1  UNL1       -0.0170
     21 C         -34.6820   17.4730   27.9160 C.ar    1  UNL1        0.0770
     22 H         -35.0900   15.2760   27.6960 H       1  UNL1        0.0910
     23 O         -33.6280   18.0890   28.3640 O.2     1  UNL1       -0.2180
     24 N         -32.6910   17.2430   28.7260 N.ar    1  UNL1       -0.1230
     25 C         -35.9620   18.1250   27.4080 C.3     1  UNL1       -0.0290
     26 H         -36.3000   18.8700   28.1270 H       1  UNL1        0.0360
     27 H         -35.7680   18.6070   26.4500 H       1  UNL1        0.0360
     28 H         -36.7320   17.3640   27.2830 H       1  UNL1        0.0360
     29 C         -31.1260   12.6940   30.9920 C.3     1  UNL1       -0.0490
     30 H         -31.4850   12.2850   31.9370 H       1  UNL1        0.0300
     31 H         -30.1850   12.2140   30.7230 H       1  UNL1        0.0300
     32 H         -30.9700   13.7680   31.0970 H       1  UNL1        0.0300
     33 C         -36.6390   10.2590   29.4420 C.3     1  UNL1       -0.0330
     34 H         -37.1250   10.9710   30.1090 H       1  UNL1        0.0420
     35 C         -36.5520   10.9210   28.0320 C.3     1  UNL1       -0.0710
     36 H         -36.4960   12.0040   28.1420 H       1  UNL1        0.0280
     37 H         -35.6610   10.5620   27.5170 H       1  UNL1        0.0280
     38 H         -37.4370   10.6600   27.4530 H       1  UNL1        0.0280
     39 C         -37.5080    8.9600   29.4050 C.3     1  UNL1       -0.0710
     40 H         -37.3880    8.4700   28.4390 H       1  UNL1        0.0280
     41 H         -37.1860    8.2850   30.1980 H       1  UNL1        0.0280
     42 H         -38.5560    9.2200   29.5540 H       1  UNL1        0.0280
     43 C         -32.8870    7.4740   26.3380 C.2     1  UNL1        0.2400
     44 O         -32.1060    6.6520   25.9810 O.2     1  UNL1       -0.2710
     45 N         -33.0430    8.7360   25.5590 N.am    1  UNL1       -0.3550
     46 H         -33.7060    9.4390   25.8500 H       1  UNL1        0.1620
     47 C         -32.2200    8.9580   24.3510 C.3     1  UNL1        0.0130
     48 H         -31.3110    8.3640   24.4500 H       1  UNL1        0.0720
     49 C         -31.8690   10.4250   24.2480 C.3     1  UNL1       -0.0380
     50 H         -30.9270   10.4650   23.7020 H       1  UNL1        0.0360
     51 H         -32.7560   10.9110   23.8420 H       1  UNL1        0.0360
     52 C         -31.6050   11.0760   25.6230 C.3     1  UNL1        0.0180
     53 H         -31.8350   10.3090   26.3620 H       1  UNL1        0.0480
     54 H         -30.6000   11.4930   25.5640 H       1  UNL1        0.0480
     55 C         -32.5460   12.2710   25.9410 C.2     1  UNL1        0.2590
     56 O         -33.3850   12.1730   26.7770 O.2     1  UNL1       -0.2650
     57 O         -32.4030   13.4840   25.2110 O.3     1  UNL1       -0.3170
     58 C         -31.0590   13.9690   25.1460 C.3     1  UNL1        0.0520
     59 H         -31.0350   14.8560   25.7790 H       1  UNL1        0.0820
     60 H         -30.4250   13.1150   25.3810 H       1  UNL1        0.0820
     61 C         -30.7770   14.4020   23.6820 C.ar    1  UNL1       -0.0340
     62 C         -31.3210   15.5830   23.1880 C.ar    1  UNL1       -0.0750
     63 C         -31.0680   15.9710   21.8730 C.ar    1  UNL1       -0.0820
     64 H         -31.9460   16.2040   23.8300 H       1  UNL1        0.0840
     65 C         -30.2690   15.1730   21.0510 C.ar    1  UNL1       -0.0830
     66 H         -31.4950   16.8980   21.4890 H       1  UNL1        0.0830
     67 C         -29.7310   13.9930   21.5480 C.ar    1  UNL1       -0.0820
     68 H         -30.0650   15.4690   20.0220 H       1  UNL1        0.0830
     69 C         -29.9790   13.6020   22.8620 C.ar    1  UNL1       -0.0750
     70 H         -29.1090   13.3710   20.9030 H       1  UNL1        0.0830
     71 H         -29.5520   12.6750   23.2450 H       1  UNL1        0.0840
     72 C         -32.9990    8.5310   23.1090 C.3     1  UNL1       -0.0390
     73 H         -34.0010    8.2870   23.4650 H       1  UNL1        0.0360
     74 H         -32.8590    9.3360   22.3880 H       1  UNL1        0.0360
     75 C         -32.3920    7.2000   22.4560 C.3     1  UNL1       -0.0010
     76 C         -32.2620    7.3840   20.8270 C.3     1  UNL1       -0.0350
     77 C         -32.8520    6.3270   20.2200 C.3     1  UNL1        0.0850
     78 H         -32.8610    8.2330   20.4980 H       1  UNL1        0.0360
     79 H         -31.2190    7.3030   20.5240 H       1  UNL1        0.0360
     80 N         -33.6570    5.6050   21.2740 N.4     1  UNL1       -0.0490
     81 H         -33.5330    6.7560   19.4850 H       1  UNL1        0.0750
     82 H         -32.0350    5.6840   19.8960 H       1  UNL1        0.0750
     83 C         -33.1440    6.1780   22.6940 C.3     1  UNL1        0.1930
     84 H         -34.6180    5.8860   21.1430 H       1  UNL1        0.2800
     85 H         -33.4020    4.6300   21.2100 H       1  UNL1        0.2800
     86 H         -32.4790    5.5850   23.3220 H       1  UNL1        0.1290
     87 H         -31.5080    6.8460   22.9870 H       1  UNL1        0.0460
     88 O         -34.2590    6.5100   23.5230 O.3     1  UNL1       -0.3690
     89 H         -34.4520    5.7740   24.1090 H       1  UNL1        0.2120
     90 C         -34.9440    6.3570   27.2560 C.3     1  UNL1       -0.0350
     91 H         -35.7410    6.6790   27.9260 H       1  UNL1        0.0370
     92 H         -35.0640    6.4590   26.1770 H       1  UNL1        0.0370
     93 C         -34.7210    4.8370   27.5350 C.3     1  UNL1       -0.0590
     94 H         -34.1890    4.4190   26.6810 H       1  UNL1        0.0380
     95 C         -33.8480    4.5920   28.8070 C.3     1  UNL1       -0.0730
     96 H         -32.8100    4.8380   28.5880 H       1  UNL1        0.0280
     97 H         -34.2060    5.2240   29.6200 H       1  UNL1        0.0280
     98 H         -33.9200    3.5460   29.1010 H       1  UNL1        0.0280
     99 C         -36.0580    4.0990   27.6420 C.3     1  UNL1       -0.0730
    100 H         -36.8760    4.8190   27.5900 H       1  UNL1        0.0280
    101 H         -36.1490    3.3880   26.8210 H       1  UNL1        0.0280
    102 H         -36.1040    3.5650   28.5910 H       1  UNL1        0.0280
@<TRIPOS>BOND
     1    81    77    1
     2    82    77    1
     3    68    65    1
     4    77    76    1
     5    77    80    1
     6    78    76    1
     7    79    76    1
     8    76    75    1
     9    70    67    1
    10    65    67   ar
    11    65    63   ar
    12    84    80    1
    13    85    80    1
    14    80    83    1
    15    66    63    1
    16    67    69   ar
    17    63    62   ar
    18    74    72    1
    19    75    83    1
    20    75    87    1
    21    75    72    1
    22    83    86    1
    23    83    88    1
    24    69    71    1
    25    69    61   ar
    26    72    73    1
    27    72    47    1
    28    62    61   ar
    29    62    64    1
    30    88    89    1
    31    61    58    1
    32    50    49    1
    33    51    49    1
    34    49    47    1
    35    49    52    1
    36    47    48    1
    37    47    45    1
    38    58    57    1
    39    58    60    1
    40    58    59    1
    41    57    55    1
    42    45    46    1
    43    45    43   am
    44    54    52    1
    45    52    55    1
    46    52    53    1
    47    55    56    2
    48    44    43    2
    49    92    90    1
    50    43     1    1
    51    27    25    1
    52    94    93    1
    53   101    99    1
    54    90    93    1
    55    90     1    1
    56    90    91    1
    57    28    25    1
    58    25    21    1
    59    25    26    1
    60    38    35    1
    61     6     3    1
    62    37    35    1
    63    93    99    1
    64    93    95    1
    65   100    99    1
    66     1     3    1
    67     1     2    1
    68    99   102    1
    69    22    20    1
    70    21    20   ar
    71    21    23   ar
    72    20    19   ar
    73    35    36    1
    74    35    33    1
    75     3     4   am
    76    23    24   ar
    77    17    16    2
    78    40    39    1
    79    19    24   ar
    80    19    16    1
    81    96    95    1
    82    12     9    1
    83    95    98    1
    84    95    97    1
    85    16    15   am
    86    14    13    1
    87    39    33    1
    88    39    42    1
    89    39    41    1
    90    33     7    1
    91    33    34    1
    92     4     7    1
    93     4     5    2
    94     9     7    1
    95     9    10   am
    96    15    13    1
    97    15    18    1
    98    13    10    1
    99    13    29    1
   100     7     8    1
   101    10    11    2
   102    31    29    1
   103    29    32    1
   104    29    30    1
