crystal_redock_e32_er3_1.pdbqt
     RDKit          3D

102104  0  0  0  0  0  0  0  0999 V2000
   -1.0562    0.2180    1.4896 C   0  0  2  0  0  0  0  0  0  0  0  0
   -0.2858    0.3629    2.2549 H   0  0  0  0  0  0  0  0  0  0  0  0
   -0.4571    0.3843    0.1739 N   0  0  0  0  0  0  0  0  0  0  0  0
    0.9010    0.2076   -0.0575 C   0  0  0  0  0  0  0  0  0  0  0  0
    1.7422    0.0138    0.8179 O   0  0  0  0  0  0  0  0  0  0  0  0
   -1.0863    0.4192   -0.6227 H   0  0  0  0  0  0  0  0  0  0  0  0
    1.2419    0.2477   -1.5475 C   0  0  1  0  0  0  0  0  0  0  0  0
    0.7426    1.1284   -1.9719 H   0  0  0  0  0  0  0  0  0  0  0  0
    2.6813    0.4471   -1.6602 N   0  0  0  0  0  0  0  0  0  0  0  0
    3.2582    1.7027   -1.8086 C   0  0  0  0  0  0  0  0  0  0  0  0
    2.6317    2.7510   -1.9483 O   0  0  0  0  0  0  0  0  0  0  0  0
    3.2833   -0.3307   -1.4080 H   0  0  0  0  0  0  0  0  0  0  0  0
    4.7832    1.6429   -1.7604 C   0  0  1  0  0  0  0  0  0  0  0  0
    5.1264    0.8497   -2.4345 H   0  0  0  0  0  0  0  0  0  0  0  0
    5.2938    2.9208   -2.2405 N   0  0  0  0  0  0  0  0  0  0  0  0
    5.6201    3.1446   -3.5724 C   0  0  0  0  0  0  0  0  0  0  0  0
    5.5907    2.2761   -4.4419 O   0  0  0  0  0  0  0  0  0  0  0  0
    5.2229    3.7073   -1.6030 H   0  0  0  0  0  0  0  0  0  0  0  0
    6.0046    4.5165   -3.8823 C   0  0  0  0  0  0  0  0  0  0  0  0
    6.1291    5.6478   -3.0349 C   0  0  0  0  0  0  0  0  0  0  0  0
    6.5209    6.6647   -3.8682 C   0  0  0  0  0  0  0  0  0  0  0  0
    5.9613    5.7219   -1.9704 H   0  0  0  0  0  0  0  0  0  0  0  0
    6.6289    6.1868   -5.1347 O   0  0  0  0  0  0  0  0  0  0  0  0
    6.3079    4.8421   -5.1495 N   0  0  0  0  0  0  0  0  0  0  0  0
    6.8307    8.0908   -3.6717 C   0  0  0  0  0  0  0  0  0  0  0  0
    6.1617    8.7150   -4.2721 H   0  0  0  0  0  0  0  0  0  0  0  0
    6.7132    8.3779   -2.6222 H   0  0  0  0  0  0  0  0  0  0  0  0
    7.8619    8.3039   -3.9694 H   0  0  0  0  0  0  0  0  0  0  0  0
    5.2725    1.3747   -0.3431 C   0  0  0  0  0  0  0  0  0  0  0  0
    4.9377    0.3974    0.0189 H   0  0  0  0  0  0  0  0  0  0  0  0
    4.8971    2.1315    0.3553 H   0  0  0  0  0  0  0  0  0  0  0  0
    6.3667    1.3954   -0.2999 H   0  0  0  0  0  0  0  0  0  0  0  0
    0.7536   -1.0193   -2.2868 C   0  0  0  0  0  0  0  0  0  0  0  0
   -0.3244   -1.1261   -2.1140 H   0  0  0  0  0  0  0  0  0  0  0  0
    0.9532   -0.8796   -3.7988 C   0  0  0  0  0  0  0  0  0  0  0  0
    2.0144   -0.8190   -4.0623 H   0  0  0  0  0  0  0  0  0  0  0  0
    0.4565    0.0210   -4.1748 H   0  0  0  0  0  0  0  0  0  0  0  0
    0.5256   -1.7393   -4.3257 H   0  0  0  0  0  0  0  0  0  0  0  0
    1.4106   -2.3116   -1.7899 C   0  0  0  0  0  0  0  0  0  0  0  0
    2.4865   -2.3259   -1.9900 H   0  0  0  0  0  0  0  0  0  0  0  0
    1.2594   -2.4482   -0.7147 H   0  0  0  0  0  0  0  0  0  0  0  0
    0.9714   -3.1798   -2.2936 H   0  0  0  0  0  0  0  0  0  0  0  0
   -1.5351   -1.2305    1.5624 C   0  0  0  0  0  0  0  0  0  0  0  0
   -1.6937   -1.9354    0.5676 O   0  0  0  0  0  0  0  0  0  0  0  0
   -1.7875   -1.6365    2.8654 N   0  0  0  0  0  0  0  0  0  0  0  0
   -1.6056   -0.9935    3.6306 H   0  0  0  0  0  0  0  0  0  0  0  0
   -2.2965   -2.9616    3.2005 C   0  0  2  0  0  0  0  0  0  0  0  0
   -2.4909   -3.5121    2.2726 H   0  0  0  0  0  0  0  0  0  0  0  0
   -3.6220   -2.8406    3.9823 C   0  0  0  0  0  0  0  0  0  0  0  0
   -4.0221   -3.8474    4.1579 H   0  0  0  0  0  0  0  0  0  0  0  0
   -3.4249   -2.4043    4.9703 H   0  0  0  0  0  0  0  0  0  0  0  0
   -4.6952   -1.9906    3.3004 C   0  0  0  0  0  0  0  0  0  0  0  0
   -5.6150   -1.9941    3.8963 H   0  0  0  0  0  0  0  0  0  0  0  0
   -4.3688   -0.9457    3.2458 H   0  0  0  0  0  0  0  0  0  0  0  0
   -5.0473   -2.4922    1.9209 C   0  0  0  0  0  0  0  0  0  0  0  0
   -5.4109   -3.6347    1.6763 O   0  0  0  0  0  0  0  0  0  0  0  0
   -4.8950   -1.4840    1.0167 O   0  0  0  0  0  0  0  0  0  0  0  0
   -5.1698   -1.8059   -0.3552 C   0  0  0  0  0  0  0  0  0  0  0  0
   -6.2456   -1.9725   -0.4835 H   0  0  0  0  0  0  0  0  0  0  0  0
   -4.6355   -2.7206   -0.6385 H   0  0  0  0  0  0  0  0  0  0  0  0
   -4.7267   -0.6457   -1.2028 C   0  0  0  0  0  0  0  0  0  0  0  0
   -3.6091   -0.7564   -2.0398 C   0  0  0  0  0  0  0  0  0  0  0  0
   -3.1825    0.3349   -2.7985 C   0  0  0  0  0  0  0  0  0  0  0  0
   -3.0575   -1.6910   -2.1022 H   0  0  0  0  0  0  0  0  0  0  0  0
   -3.8671    1.5462   -2.7267 C   0  0  0  0  0  0  0  0  0  0  0  0
   -2.3129    0.2407   -3.4424 H   0  0  0  0  0  0  0  0  0  0  0  0
   -4.9818    1.6667   -1.8994 C   0  0  0  0  0  0  0  0  0  0  0  0
   -3.5323    2.3955   -3.3150 H   0  0  0  0  0  0  0  0  0  0  0  0
   -5.4106    0.5764   -1.1410 C   0  0  0  0  0  0  0  0  0  0  0  0
   -5.5156    2.6108   -1.8417 H   0  0  0  0  0  0  0  0  0  0  0  0
   -6.2774    0.6872   -0.4942 H   0  0  0  0  0  0  0  0  0  0  0  0
   -1.2693   -3.7591    4.0300 C   0  0  0  0  0  0  0  0  0  0  0  0
   -0.9677   -3.1803    4.9123 H   0  0  0  0  0  0  0  0  0  0  0  0
   -1.7686   -4.6594    4.4134 H   0  0  0  0  0  0  0  0  0  0  0  0
   -0.0327   -4.2209    3.2429 C   0  0  2  0  0  0  0  0  0  0  0  0
    0.8147   -5.1965    4.0616 C   0  0  0  0  0  0  0  0  0  0  0  0
    2.0899   -5.3143    3.2521 C   0  0  0  0  0  0  0  0  0  0  0  0
    1.0323   -4.7900    5.0571 H   0  0  0  0  0  0  0  0  0  0  0  0
    0.3272   -6.1674    4.1929 H   0  0  0  0  0  0  0  0  0  0  0  0
    2.2595   -3.9611    2.6306 N   0  0  0  0  0  0  0  0  0  0  0  0
    1.9923   -6.0308    2.4309 H   0  0  0  0  0  0  0  0  0  0  0  0
    2.9745   -5.5366    3.8539 H   0  0  0  0  0  0  0  0  0  0  0  0
    1.0030   -3.1574    2.8572 C   0  0  2  0  0  0  0  0  0  0  0  0
    2.4557   -4.0528    1.6243 H   0  0  0  0  0  0  0  0  0  0  0  0
    3.0623   -3.4673    3.0427 H   0  0  0  0  0  0  0  0  0  0  0  0
    0.7638   -2.6761    1.9058 H   0  0  0  0  0  0  0  0  0  0  0  0
   -0.3634   -4.7409    2.3324 H   0  0  0  0  0  0  0  0  0  0  0  0
    1.1247   -2.1622    3.8629 O   0  0  0  0  0  0  0  0  0  0  0  0
    1.8177   -1.5439    3.5749 H   0  0  0  0  0  0  0  0  0  0  0  0
   -2.2358    1.1760    1.7001 C   0  0  0  0  0  0  0  0  0  0  0  0
   -3.0276    0.9288    0.9811 H   0  0  0  0  0  0  0  0  0  0  0  0
   -2.6709    1.0045    2.6934 H   0  0  0  0  0  0  0  0  0  0  0  0
   -1.8887    2.6705    1.5516 C   0  0  0  0  0  0  0  0  0  0  0  0
   -1.4958    2.8502    0.5432 H   0  0  0  0  0  0  0  0  0  0  0  0
   -3.1578    3.5126    1.7066 C   0  0  0  0  0  0  0  0  0  0  0  0
   -3.9088    3.2254    0.9632 H   0  0  0  0  0  0  0  0  0  0  0  0
   -3.5994    3.3875    2.7011 H   0  0  0  0  0  0  0  0  0  0  0  0
   -2.9389    4.5762    1.5642 H   0  0  0  0  0  0  0  0  0  0  0  0
   -0.8370    3.1261    2.5635 C   0  0  0  0  0  0  0  0  0  0  0  0
   -1.1539    2.9107    3.5895 H   0  0  0  0  0  0  0  0  0  0  0  0
    0.1229    2.6301    2.3912 H   0  0  0  0  0  0  0  0  0  0  0  0
   -0.6627    4.2045    2.4832 H   0  0  0  0  0  0  0  0  0  0  0  0
100 99  1  0
101 99  1  0
102 99  1  0
 99 93  1  0
 42 39  1  0
 97 95  1  0
 34 33  1  0
 93 94  1  0
 93 95  1  0
 93 90  1  0
 38 35  1  0
 95 98  1  0
 95 96  1  0
 91 90  1  0
 28 25  1  0
 39 33  1  0
 39 40  1  0
 39 41  1  0
 37 35  1  0
 27 25  1  0
 33 35  1  0
 33  7  1  0
  5  4  2  0
 35 36  1  0
 90 92  1  0
 90  1  1  0
 25 26  1  0
 25 21  1  0
 22 20  1  0
 12  9  1  0
  4  7  1  0
  4  3  1  0
  7  9  1  0
  7  8  1  6
  1  2  1  1
  1  3  1  0
  1 43  1  0
  9 10  1  0
 21 20  2  0
 21 23  1  0
 20 19  1  0
 18 15  1  0
  3  6  1  0
 89 88  1  0
 32 29  1  0
 31 29  1  0
 44 43  2  0
 43 45  1  0
 88 83  1  0
 15 13  1  0
 15 16  1  0
 29 13  1  0
 29 30  1  0
 23 24  1  0
 10 13  1  0
 10 11  2  0
 19 16  1  0
 19 24  2  0
 85 80  1  0
 83 86  1  6
 84 80  1  0
 13 14  1  6
 83 80  1  0
 83 75  1  0
 80 77  1  0
 16 17  2  0
 45 46  1  0
 45 47  1  0
 73 72  1  0
 75 87  1  6
 75 72  1  0
 75 76  1  0
 47 48  1  6
 77 82  1  0
 77 81  1  0
 77 76  1  0
 72 47  1  0
 72 74  1  0
 47 49  1  0
 76 78  1  0
 76 79  1  0
 54 52  1  0
 56 55  2  0
 50 49  1  0
 59 58  1  0
 49 52  1  0
 49 51  1  0
 55 52  1  0
 55 57  1  0
 52 53  1  0
 60 58  1  0
 58 57  1  0
 58 61  1  0
 71 69  1  0
 61 69  1  0
 61 62  2  0
 69 67  2  0
 64 62  1  0
 62 63  1  0
 67 70  1  0
 67 65  1  0
 63 65  2  0
 63 66  1  0
 65 68  1  0
M  CHG  1  80   1
M  END
>  <_TriposChargeType>  (1) 
GASTEIGER

>  <energy_abs>  (1) 
78.500881228812

>  <SMILE>  (1) 
[H]O[C@]1([H])[C@]([H])(C([H])([H])[C@]([H])(N([H])C(=O)[C@@]([H])(N([H])C(=O)[C@@]([H])(N([H])C(=O)[C@@]([H])(N([H])C(=O)c2noc(C([H])([H])[H])c2[H])C([H])([H])[H])C([H])(C([H])([H])[H])C([H])([H])[H])C([H])([H])C([H])(C([H])([H])[H])C([H])([H])[H])C([H])([H])C([H])([H])C(=O)OC([H])([H])c2c([H])c([H])c([H])c([H])c2[H])C([H])([H])C([H])([H])[N+]1([H])[H]

>  <cluster_no>  (1) 
150

>  <pdb_id>  (1) 
crystal_redock_e32_er3_1

>  <initial_id>  (1) 
852

$$$$
